
*** ChampSim Multicore Out-of-Order Simulator ***

Warmup Instructions: 1
Simulation Instructions: 50000
Number of CPUs: 1
LLC sets: 2048
LLC ways: 16
Off-chip DRAM Size: 4096 MB Channels: 1 Width: 64-bit Data Rate: 3200 MT/s

Hard-to-Predict branches will be logged based on file: 
/home/users/avontz/ChampSim/results/H2P/H2P_with_IP_TAGE64/600.perlbench_s-1273B.champsimtrace.xz.txt

CPU 0 runs /local/vkarakos/hpca23-traces/600.perlbench_s-1273B.champsimtrace.xz
 (TOTAL 67349)
 
Warmup complete CPU 0 instructions: 4 cycles: 10 (Simulation time: 0 hr 0 min 0 sec) 

--- H2P ---
5015393 0
4998862 1
4998763 0
4998744 0
4995634 1
4995592 0
4995550 0
4995356 1
4995314 0
4995273 1
5038824 1
5038766 1
4994900 1
4994837 1
5313820 1
5313758 1
4994742 1
4976234 1
--- H2P ---
5008304 0
5008293 0
4999978 1
4999973 0
4999968 0
4999945 0
4998239 1
4995634 1
4995592 0
4995550 0
4995356 1
4995314 0
5015399 1
5015393 0
4998862 1
4998763 0
4998744 0
4995634 1
4995592 0
4995550 0
4995356 1
4995314 0
4995273 1
5038824 1
5038766 1
4994900 1
4994837 1
5313820 1
5313758 1
4994742 1
4976234 1
--- H2P ---
5008313 1
5008304 0
5008293 0
4999978 1
4999973 0
4999968 0
4999945 0
4998239 1
4995634 1
4995592 0
4995550 0
4995356 1
4995314 0
5015399 1
5015393 0
4998862 1
4998763 0
4998744 0
4995634 1
4995592 0
4995550 0
4995356 1
4995314 0
4995273 1
5038824 1
5038766 1
4994900 1
4994837 1
5313820 1
5313758 1
4994742 1
4976234 1
--- H2P ---
4976087 0
4976292 1
5034664 1
5034633 0
5034088 1
5034081 0
5032431 1
5031481 1
5031479 0
5031443 1
5031411 1
5031390 0
5031337 1
5031318 0
5031292 1
4976271 1
4976267 0
4976243 0
5023051 1
5023021 1
5022702 1
5022569 1
5021834 1
5021830 0
5008313 1
5008304 0
5008293 0
4999978 1
4999973 0
4999968 0
4999945 0
4998239 1
4995634 1
4995592 0
4995550 0
4995356 1
4995314 0
5015399 1
5015393 0
4998862 1
4998763 0
4998744 0
4995634 1
4995592 0
4995550 0
4995356 1
4995314 0
4995273 1
5038824 1
5038766 1
4994900 1
4994837 1
5313820 1
5313758 1
4994742 1
4976234 1
--- H2P ---
4976121 0
4976087 0
4976292 1
5034664 1
5034633 0
5034088 1
5034081 0
5032431 1
5031481 1
5031479 0
5031443 1
5031411 1
5031390 0
5031337 1
5031318 0
5031292 1
4976271 1
4976267 0
4976243 0
5023051 1
5023021 1
5022702 1
5022569 1
5021834 1
5021830 0
5008313 1
5008304 0
5008293 0
4999978 1
4999973 0
4999968 0
4999945 0
4998239 1
4995634 1
4995592 0
4995550 0
4995356 1
4995314 0
5015399 1
5015393 0
4998862 1
4998763 0
4998744 0
4995634 1
4995592 0
4995550 0
4995356 1
4995314 0
4995273 1
5038824 1
5038766 1
4994900 1
4994837 1
5313820 1
5313758 1
4994742 1
4976234 1
--- H2P ---
5015393 0
4998862 1
4998763 0
4998744 0
4995634 1
4995592 0
4995550 0
4995356 1
4995314 0
4995273 1
5038824 1
5038766 1
4994900 1
4994837 1
5313820 1
5313758 1
4994742 1
4976234 1
4976184 1
4976129 0
4976121 0
4976087 0
4976292 1
5034664 1
5034633 0
5034088 1
5034081 0
5032431 1
5031481 1
5031479 0
5031443 1
5031411 1
5031390 0
5031337 1
5031318 0
5031292 1
4976271 1
4976267 0
4976243 0
5023051 1
5023021 1
5022702 1
5022569 1
5021834 1
5021830 0
5008313 1
5008304 0
5008293 0
4999978 1
4999973 0
4999968 0
4999945 0
4998239 1
4995634 1
4995592 0
4995550 0
4995356 1
4995314 0
5015399 1
5015393 0
4998862 1
4998763 0
4998744 0
4995634 1
4995592 0
4995550 0
4995356 1
4995314 0
4995273 1
5038824 1
5038766 1
4994900 1
4994837 1
5313820 1
5313758 1
4994742 1
4976234 1
--- H2P ---
5008304 0
5008293 0
4999978 1
4999973 0
4999968 0
4999945 0
4998239 1
4995634 1
4995592 0
4995550 0
4995356 1
4995314 0
5015399 1
5015393 0
4998862 1
4998763 0
4998744 0
4995634 1
4995592 0
4995550 0
4995356 1
4995314 0
4995273 1
5038824 1
5038766 1
4994900 1
4994837 1
5313820 1
5313758 1
4994742 1
4976234 1
4976184 1
4976129 0
4976121 0
4976087 0
4976292 1
5034664 1
5034633 0
5034088 1
5034081 0
5032431 1
5031481 1
5031479 0
5031443 1
5031411 1
5031390 0
5031337 1
5031318 0
5031292 1
4976271 1
4976267 0
4976243 0
5023051 1
5023021 1
5022702 1
5022569 1
5021834 1
5021830 0
5008313 1
5008304 0
5008293 0
4999978 1
4999973 0
4999968 0
4999945 0
4998239 1
4995634 1
4995592 0
4995550 0
4995356 1
4995314 0
5015399 1
5015393 0
4998862 1
4998763 0
4998744 0
4995634 1
4995592 0
4995550 0
4995356 1
4995314 0
4995273 1
5038824 1
5038766 1
4994900 1
4994837 1
5313820 1
5313758 1
4994742 1
4976234 1
--- H2P ---
5008313 1
5008304 0
5008293 0
4999978 1
4999973 0
4999968 0
4999945 0
4998239 1
4995634 1
4995592 0
4995550 0
4995356 1
4995314 0
5015399 1
5015393 0
4998862 1
4998763 0
4998744 0
4995634 1
4995592 0
4995550 0
4995356 1
4995314 0
4995273 1
5038824 1
5038766 1
4994900 1
4994837 1
5313820 1
5313758 1
4994742 1
4976234 1
4976184 1
4976129 0
4976121 0
4976087 0
4976292 1
5034664 1
5034633 0
5034088 1
5034081 0
5032431 1
5031481 1
5031479 0
5031443 1
5031411 1
5031390 0
5031337 1
5031318 0
5031292 1
4976271 1
4976267 0
4976243 0
5023051 1
5023021 1
5022702 1
5022569 1
5021834 1
5021830 0
5008313 1
5008304 0
5008293 0
4999978 1
4999973 0
4999968 0
4999945 0
4998239 1
4995634 1
4995592 0
4995550 0
4995356 1
4995314 0
5015399 1
5015393 0
4998862 1
4998763 0
4998744 0
4995634 1
4995592 0
4995550 0
4995356 1
4995314 0
4995273 1
5038824 1
5038766 1
4994900 1
4994837 1
5313820 1
5313758 1
4994742 1
4976234 1
--- H2P ---
4976087 0
4976292 1
5034664 1
5034633 0
5034088 1
5034081 0
5032431 1
5031481 1
5031479 0
5031443 1
5031411 1
5031390 0
5031337 1
5031318 0
5031292 1
4976271 1
4976267 0
4976243 0
5023051 1
5023021 1
5022702 1
5022569 1
5021834 1
5021830 0
5008313 1
5008304 0
5008293 0
4999978 1
4999973 0
4999968 0
4999945 0
4998239 1
4995634 1
4995592 0
4995550 0
4995356 1
4995314 0
5015399 1
5015393 0
4998862 1
4998763 0
4998744 0
4995634 1
4995592 0
4995550 0
4995356 1
4995314 0
4995273 1
5038824 1
5038766 1
4994900 1
4994837 1
5313820 1
5313758 1
4994742 1
4976234 1
4976184 1
4976129 0
4976121 0
4976087 0
4976292 1
5034664 1
5034633 0
5034088 1
5034081 0
5032431 1
5031481 1
5031479 0
5031443 1
5031411 1
5031390 0
5031337 1
5031318 0
5031292 1
4976271 1
4976267 0
4976243 0
5023051 1
5023021 1
5022702 1
5022569 1
5021834 1
5021830 0
5008313 1
5008304 0
5008293 0
4999978 1
4999973 0
4999968 0
4999945 0
4998239 1
4995634 1
4995592 0
4995550 0
4995356 1
4995314 0
5015399 1
5015393 0
4998862 1
4998763 0
4998744 0
4995634 1
4995592 0
4995550 0
4995356 1
4995314 0
4995273 1
5038824 1
5038766 1
4994900 1
4994837 1
5313820 1
5313758 1
4994742 1
4976234 1
--- H2P ---
4976121 1
4976087 0
4976292 1
5034664 1
5034633 0
5034088 1
5034081 0
5032431 1
5031481 1
5031479 0
5031443 1
5031411 1
5031390 0
5031337 1
5031318 0
5031292 1
4976271 1
4976267 0
4976243 0
5023051 1
5023021 1
5022702 1
5022569 1
5021834 1
5021830 0
5008313 1
5008304 0
5008293 0
4999978 1
4999973 0
4999968 0
4999945 0
4998239 1
4995634 1
4995592 0
4995550 0
4995356 1
4995314 0
5015399 1
5015393 0
4998862 1
4998763 0
4998744 0
4995634 1
4995592 0
4995550 0
4995356 1
4995314 0
4995273 1
5038824 1
5038766 1
4994900 1
4994837 1
5313820 1
5313758 1
4994742 1
4976234 1
4976184 1
4976129 0
4976121 0
4976087 0
4976292 1
5034664 1
5034633 0
5034088 1
5034081 0
5032431 1
5031481 1
5031479 0
5031443 1
5031411 1
5031390 0
5031337 1
5031318 0
5031292 1
4976271 1
4976267 0
4976243 0
5023051 1
5023021 1
5022702 1
5022569 1
5021834 1
5021830 0
5008313 1
5008304 0
5008293 0
4999978 1
4999973 0
4999968 0
4999945 0
4998239 1
4995634 1
4995592 0
4995550 0
4995356 1
4995314 0
5015399 1
5015393 0
4998862 1
4998763 0
4998744 0
4995634 1
4995592 0
4995550 0
4995356 1
4995314 0
4995273 1
5038824 1
5038766 1
4994900 1
4994837 1
5313820 1
5313758 1
4994742 1
4976234 1
--- H2P ---
4976087 0
4976121 1
4976087 0
4976292 1
5034664 1
5034633 0
5034088 1
5034081 0
5032431 1
5031481 1
5031479 0
5031443 1
5031411 1
5031390 0
5031337 1
5031318 0
5031292 1
4976271 1
4976267 0
4976243 0
5023051 1
5023021 1
5022702 1
5022569 1
5021834 1
5021830 0
5008313 1
5008304 0
5008293 0
4999978 1
4999973 0
4999968 0
4999945 0
4998239 1
4995634 1
4995592 0
4995550 0
4995356 1
4995314 0
5015399 1
5015393 0
4998862 1
4998763 0
4998744 0
4995634 1
4995592 0
4995550 0
4995356 1
4995314 0
4995273 1
5038824 1
5038766 1
4994900 1
4994837 1
5313820 1
5313758 1
4994742 1
4976234 1
4976184 1
4976129 0
4976121 0
4976087 0
4976292 1
5034664 1
5034633 0
5034088 1
5034081 0
5032431 1
5031481 1
5031479 0
5031443 1
5031411 1
5031390 0
5031337 1
5031318 0
5031292 1
4976271 1
4976267 0
4976243 0
5023051 1
5023021 1
5022702 1
5022569 1
5021834 1
5021830 0
5008313 1
5008304 0
5008293 0
4999978 1
4999973 0
4999968 0
4999945 0
4998239 1
4995634 1
4995592 0
4995550 0
4995356 1
4995314 0
5015399 1
5015393 0
4998862 1
4998763 0
4998744 0
4995634 1
4995592 0
4995550 0
4995356 1
4995314 0
4995273 1
5038824 1
5038766 1
4994900 1
4994837 1
5313820 1
5313758 1
4994742 1
4976234 1
--- H2P ---
4976121 1
4976087 0
4976121 1
4976087 0
4976292 1
5034664 1
5034633 0
5034088 1
5034081 0
5032431 1
5031481 1
5031479 0
5031443 1
5031411 1
5031390 0
5031337 1
5031318 0
5031292 1
4976271 1
4976267 0
4976243 0
5023051 1
5023021 1
5022702 1
5022569 1
5021834 1
5021830 0
5008313 1
5008304 0
5008293 0
4999978 1
4999973 0
4999968 0
4999945 0
4998239 1
4995634 1
4995592 0
4995550 0
4995356 1
4995314 0
5015399 1
5015393 0
4998862 1
4998763 0
4998744 0
4995634 1
4995592 0
4995550 0
4995356 1
4995314 0
4995273 1
5038824 1
5038766 1
4994900 1
4994837 1
5313820 1
5313758 1
4994742 1
4976234 1
4976184 1
4976129 0
4976121 0
4976087 0
4976292 1
5034664 1
5034633 0
5034088 1
5034081 0
5032431 1
5031481 1
5031479 0
5031443 1
5031411 1
5031390 0
5031337 1
5031318 0
5031292 1
4976271 1
4976267 0
4976243 0
5023051 1
5023021 1
5022702 1
5022569 1
5021834 1
5021830 0
5008313 1
5008304 0
5008293 0
4999978 1
4999973 0
4999968 0
4999945 0
4998239 1
4995634 1
4995592 0
4995550 0
4995356 1
4995314 0
5015399 1
5015393 0
4998862 1
4998763 0
4998744 0
4995634 1
4995592 0
4995550 0
4995356 1
4995314 0
4995273 1
5038824 1
5038766 1
4994900 1
4994837 1
5313820 1
5313758 1
4994742 1
4976234 1
--- H2P ---
4976087 0
4976121 1
4976087 0
4976121 1
4976087 0
4976292 1
5034664 1
5034633 0
5034088 1
5034081 0
5032431 1
5031481 1
5031479 0
5031443 1
5031411 1
5031390 0
5031337 1
5031318 0
5031292 1
4976271 1
4976267 0
4976243 0
5023051 1
5023021 1
5022702 1
5022569 1
5021834 1
5021830 0
5008313 1
5008304 0
5008293 0
4999978 1
4999973 0
4999968 0
4999945 0
4998239 1
4995634 1
4995592 0
4995550 0
4995356 1
4995314 0
5015399 1
5015393 0
4998862 1
4998763 0
4998744 0
4995634 1
4995592 0
4995550 0
4995356 1
4995314 0
4995273 1
5038824 1
5038766 1
4994900 1
4994837 1
5313820 1
5313758 1
4994742 1
4976234 1
4976184 1
4976129 0
4976121 0
4976087 0
4976292 1
5034664 1
5034633 0
5034088 1
5034081 0
5032431 1
5031481 1
5031479 0
5031443 1
5031411 1
5031390 0
5031337 1
5031318 0
5031292 1
4976271 1
4976267 0
4976243 0
5023051 1
5023021 1
5022702 1
5022569 1
5021834 1
5021830 0
5008313 1
5008304 0
5008293 0
4999978 1
4999973 0
4999968 0
4999945 0
4998239 1
4995634 1
4995592 0
4995550 0
4995356 1
4995314 0
5015399 1
5015393 0
4998862 1
4998763 0
4998744 0
4995634 1
4995592 0
4995550 0
4995356 1
4995314 0
4995273 1
5038824 1
5038766 1
4994900 1
4994837 1
5313820 1
5313758 1
4994742 1
4976234 1
--- H2P ---
4976121 1
4976087 0
4976121 1
4976087 0
4976121 1
4976087 0
4976292 1
5034664 1
5034633 0
5034088 1
5034081 0
5032431 1
5031481 1
5031479 0
5031443 1
5031411 1
5031390 0
5031337 1
5031318 0
5031292 1
4976271 1
4976267 0
4976243 0
5023051 1
5023021 1
5022702 1
5022569 1
5021834 1
5021830 0
5008313 1
5008304 0
5008293 0
4999978 1
4999973 0
4999968 0
4999945 0
4998239 1
4995634 1
4995592 0
4995550 0
4995356 1
4995314 0
5015399 1
5015393 0
4998862 1
4998763 0
4998744 0
4995634 1
4995592 0
4995550 0
4995356 1
4995314 0
4995273 1
5038824 1
5038766 1
4994900 1
4994837 1
5313820 1
5313758 1
4994742 1
4976234 1
4976184 1
4976129 0
4976121 0
4976087 0
4976292 1
5034664 1
5034633 0
5034088 1
5034081 0
5032431 1
5031481 1
5031479 0
5031443 1
5031411 1
5031390 0
5031337 1
5031318 0
5031292 1
4976271 1
4976267 0
4976243 0
5023051 1
5023021 1
5022702 1
5022569 1
5021834 1
5021830 0
5008313 1
5008304 0
5008293 0
4999978 1
4999973 0
4999968 0
4999945 0
4998239 1
4995634 1
4995592 0
4995550 0
4995356 1
4995314 0
5015399 1
5015393 0
4998862 1
4998763 0
4998744 0
4995634 1
4995592 0
4995550 0
4995356 1
4995314 0
4995273 1
5038824 1
5038766 1
4994900 1
4994837 1
5313820 1
5313758 1
4994742 1
4976234 1
--- H2P ---
4976087 0
4976121 1
4976087 0
4976121 1
4976087 0
4976121 1
4976087 0
4976292 1
5034664 1
5034633 0
5034088 1
5034081 0
5032431 1
5031481 1
5031479 0
5031443 1
5031411 1
5031390 0
5031337 1
5031318 0
5031292 1
4976271 1
4976267 0
4976243 0
5023051 1
5023021 1
5022702 1
5022569 1
5021834 1
5021830 0
5008313 1
5008304 0
5008293 0
4999978 1
4999973 0
4999968 0
4999945 0
4998239 1
4995634 1
4995592 0
4995550 0
4995356 1
4995314 0
5015399 1
5015393 0
4998862 1
4998763 0
4998744 0
4995634 1
4995592 0
4995550 0
4995356 1
4995314 0
4995273 1
5038824 1
5038766 1
4994900 1
4994837 1
5313820 1
5313758 1
4994742 1
4976234 1
4976184 1
4976129 0
4976121 0
4976087 0
4976292 1
5034664 1
5034633 0
5034088 1
5034081 0
5032431 1
5031481 1
5031479 0
5031443 1
5031411 1
5031390 0
5031337 1
5031318 0
5031292 1
4976271 1
4976267 0
4976243 0
5023051 1
5023021 1
5022702 1
5022569 1
5021834 1
5021830 0
5008313 1
5008304 0
5008293 0
4999978 1
4999973 0
4999968 0
4999945 0
4998239 1
4995634 1
4995592 0
4995550 0
4995356 1
4995314 0
5015399 1
5015393 0
4998862 1
4998763 0
4998744 0
4995634 1
4995592 0
4995550 0
4995356 1
4995314 0
4995273 1
5038824 1
5038766 1
4994900 1
4994837 1
5313820 1
5313758 1
4994742 1
4976234 1
--- H2P ---
4976121 1
4976087 0
4976121 1
4976087 0
4976121 1
4976087 0
4976121 1
4976087 0
4976292 1
5034664 1
5034633 0
5034088 1
5034081 0
5032431 1
5031481 1
5031479 0
5031443 1
5031411 1
5031390 0
5031337 1
5031318 0
5031292 1
4976271 1
4976267 0
4976243 0
5023051 1
5023021 1
5022702 1
5022569 1
5021834 1
5021830 0
5008313 1
5008304 0
5008293 0
4999978 1
4999973 0
4999968 0
4999945 0
4998239 1
4995634 1
4995592 0
4995550 0
4995356 1
4995314 0
5015399 1
5015393 0
4998862 1
4998763 0
4998744 0
4995634 1
4995592 0
4995550 0
4995356 1
4995314 0
4995273 1
5038824 1
5038766 1
4994900 1
4994837 1
5313820 1
5313758 1
4994742 1
4976234 1
4976184 1
4976129 0
4976121 0
4976087 0
4976292 1
5034664 1
5034633 0
5034088 1
5034081 0
5032431 1
5031481 1
5031479 0
5031443 1
5031411 1
5031390 0
5031337 1
5031318 0
5031292 1
4976271 1
4976267 0
4976243 0
5023051 1
5023021 1
5022702 1
5022569 1
5021834 1
5021830 0
5008313 1
5008304 0
5008293 0
4999978 1
4999973 0
4999968 0
4999945 0
4998239 1
4995634 1
4995592 0
4995550 0
4995356 1
4995314 0
5015399 1
5015393 0
4998862 1
4998763 0
4998744 0
4995634 1
4995592 0
4995550 0
4995356 1
4995314 0
4995273 1
5038824 1
5038766 1
4994900 1
4994837 1
5313820 1
5313758 1
4994742 1
4976234 1
--- H2P ---
4976087 0
4976121 1
4976087 0
4976121 1
4976087 0
4976121 1
4976087 0
4976121 1
4976087 0
4976292 1
5034664 1
5034633 0
5034088 1
5034081 0
5032431 1
5031481 1
5031479 0
5031443 1
5031411 1
5031390 0
5031337 1
5031318 0
5031292 1
4976271 1
4976267 0
4976243 0
5023051 1
5023021 1
5022702 1
5022569 1
5021834 1
5021830 0
5008313 1
5008304 0
5008293 0
4999978 1
4999973 0
4999968 0
4999945 0
4998239 1
4995634 1
4995592 0
4995550 0
4995356 1
4995314 0
5015399 1
5015393 0
4998862 1
4998763 0
4998744 0
4995634 1
4995592 0
4995550 0
4995356 1
4995314 0
4995273 1
5038824 1
5038766 1
4994900 1
4994837 1
5313820 1
5313758 1
4994742 1
4976234 1
4976184 1
4976129 0
4976121 0
4976087 0
4976292 1
5034664 1
5034633 0
5034088 1
5034081 0
5032431 1
5031481 1
5031479 0
5031443 1
5031411 1
5031390 0
5031337 1
5031318 0
5031292 1
4976271 1
4976267 0
4976243 0
5023051 1
5023021 1
5022702 1
5022569 1
5021834 1
5021830 0
5008313 1
5008304 0
5008293 0
4999978 1
4999973 0
4999968 0
4999945 0
4998239 1
4995634 1
4995592 0
4995550 0
4995356 1
4995314 0
5015399 1
5015393 0
4998862 1
4998763 0
4998744 0
4995634 1
4995592 0
4995550 0
4995356 1
4995314 0
4995273 1
5038824 1
5038766 1
4994900 1
4994837 1
5313820 1
5313758 1
4994742 1
4976234 1
--- H2P ---
4976121 1
4976087 0
4976121 1
4976087 0
4976121 1
4976087 0
4976121 1
4976087 0
4976121 1
4976087 0
4976292 1
5034664 1
5034633 0
5034088 1
5034081 0
5032431 1
5031481 1
5031479 0
5031443 1
5031411 1
5031390 0
5031337 1
5031318 0
5031292 1
4976271 1
4976267 0
4976243 0
5023051 1
5023021 1
5022702 1
5022569 1
5021834 1
5021830 0
5008313 1
5008304 0
5008293 0
4999978 1
4999973 0
4999968 0
4999945 0
4998239 1
4995634 1
4995592 0
4995550 0
4995356 1
4995314 0
5015399 1
5015393 0
4998862 1
4998763 0
4998744 0
4995634 1
4995592 0
4995550 0
4995356 1
4995314 0
4995273 1
5038824 1
5038766 1
4994900 1
4994837 1
5313820 1
5313758 1
4994742 1
4976234 1
4976184 1
4976129 0
4976121 0
4976087 0
4976292 1
5034664 1
5034633 0
5034088 1
5034081 0
5032431 1
5031481 1
5031479 0
5031443 1
5031411 1
5031390 0
5031337 1
5031318 0
5031292 1
4976271 1
4976267 0
4976243 0
5023051 1
5023021 1
5022702 1
5022569 1
5021834 1
5021830 0
5008313 1
5008304 0
5008293 0
4999978 1
4999973 0
4999968 0
4999945 0
4998239 1
4995634 1
4995592 0
4995550 0
4995356 1
4995314 0
5015399 1
5015393 0
4998862 1
4998763 0
4998744 0
4995634 1
4995592 0
4995550 0
4995356 1
4995314 0
4995273 1
5038824 1
5038766 1
4994900 1
4994837 1
5313820 1
5313758 1
4994742 1
4976234 1
--- H2P ---
4976087 0
4976121 1
4976087 0
4976121 1
4976087 0
4976121 1
4976087 0
4976121 1
4976087 0
4976121 1
4976087 0
4976292 1
5034664 1
5034633 0
5034088 1
5034081 0
5032431 1
5031481 1
5031479 0
5031443 1
5031411 1
5031390 0
5031337 1
5031318 0
5031292 1
4976271 1
4976267 0
4976243 0
5023051 1
5023021 1
5022702 1
5022569 1
5021834 1
5021830 0
5008313 1
5008304 0
5008293 0
4999978 1
4999973 0
4999968 0
4999945 0
4998239 1
4995634 1
4995592 0
4995550 0
4995356 1
4995314 0
5015399 1
5015393 0
4998862 1
4998763 0
4998744 0
4995634 1
4995592 0
4995550 0
4995356 1
4995314 0
4995273 1
5038824 1
5038766 1
4994900 1
4994837 1
5313820 1
5313758 1
4994742 1
4976234 1
4976184 1
4976129 0
4976121 0
4976087 0
4976292 1
5034664 1
5034633 0
5034088 1
5034081 0
5032431 1
5031481 1
5031479 0
5031443 1
5031411 1
5031390 0
5031337 1
5031318 0
5031292 1
4976271 1
4976267 0
4976243 0
5023051 1
5023021 1
5022702 1
5022569 1
5021834 1
5021830 0
5008313 1
5008304 0
5008293 0
4999978 1
4999973 0
4999968 0
4999945 0
4998239 1
4995634 1
4995592 0
4995550 0
4995356 1
4995314 0
5015399 1
5015393 0
4998862 1
4998763 0
4998744 0
4995634 1
4995592 0
4995550 0
4995356 1
4995314 0
4995273 1
5038824 1
5038766 1
4994900 1
4994837 1
5313820 1
5313758 1
4994742 1
4976234 1
--- H2P ---
4976121 1
4976087 0
4976121 1
4976087 0
4976121 1
4976087 0
4976121 1
4976087 0
4976121 1
4976087 0
4976121 1
4976087 0
4976292 1
5034664 1
5034633 0
5034088 1
5034081 0
5032431 1
5031481 1
5031479 0
5031443 1
5031411 1
5031390 0
5031337 1
5031318 0
5031292 1
4976271 1
4976267 0
4976243 0
5023051 1
5023021 1
5022702 1
5022569 1
5021834 1
5021830 0
5008313 1
5008304 0
5008293 0
4999978 1
4999973 0
4999968 0
4999945 0
4998239 1
4995634 1
4995592 0
4995550 0
4995356 1
4995314 0
5015399 1
5015393 0
4998862 1
4998763 0
4998744 0
4995634 1
4995592 0
4995550 0
4995356 1
4995314 0
4995273 1
5038824 1
5038766 1
4994900 1
4994837 1
5313820 1
5313758 1
4994742 1
4976234 1
4976184 1
4976129 0
4976121 0
4976087 0
4976292 1
5034664 1
5034633 0
5034088 1
5034081 0
5032431 1
5031481 1
5031479 0
5031443 1
5031411 1
5031390 0
5031337 1
5031318 0
5031292 1
4976271 1
4976267 0
4976243 0
5023051 1
5023021 1
5022702 1
5022569 1
5021834 1
5021830 0
5008313 1
5008304 0
5008293 0
4999978 1
4999973 0
4999968 0
4999945 0
4998239 1
4995634 1
4995592 0
4995550 0
4995356 1
4995314 0
5015399 1
5015393 0
4998862 1
4998763 0
4998744 0
4995634 1
4995592 0
4995550 0
4995356 1
4995314 0
4995273 1
5038824 1
5038766 1
4994900 1
4994837 1
5313820 1
5313758 1
4994742 1
4976234 1
--- H2P ---
4976087 0
4976121 1
4976087 0
4976121 1
4976087 0
4976121 1
4976087 0
4976121 1
4976087 0
4976121 1
4976087 0
4976121 1
4976087 0
4976292 1
5034664 1
5034633 0
5034088 1
5034081 0
5032431 1
5031481 1
5031479 0
5031443 1
5031411 1
5031390 0
5031337 1
5031318 0
5031292 1
4976271 1
4976267 0
4976243 0
5023051 1
5023021 1
5022702 1
5022569 1
5021834 1
5021830 0
5008313 1
5008304 0
5008293 0
4999978 1
4999973 0
4999968 0
4999945 0
4998239 1
4995634 1
4995592 0
4995550 0
4995356 1
4995314 0
5015399 1
5015393 0
4998862 1
4998763 0
4998744 0
4995634 1
4995592 0
4995550 0
4995356 1
4995314 0
4995273 1
5038824 1
5038766 1
4994900 1
4994837 1
5313820 1
5313758 1
4994742 1
4976234 1
4976184 1
4976129 0
4976121 0
4976087 0
4976292 1
5034664 1
5034633 0
5034088 1
5034081 0
5032431 1
5031481 1
5031479 0
5031443 1
5031411 1
5031390 0
5031337 1
5031318 0
5031292 1
4976271 1
4976267 0
4976243 0
5023051 1
5023021 1
5022702 1
5022569 1
5021834 1
5021830 0
5008313 1
5008304 0
5008293 0
4999978 1
4999973 0
4999968 0
4999945 0
4998239 1
4995634 1
4995592 0
4995550 0
4995356 1
4995314 0
5015399 1
5015393 0
4998862 1
4998763 0
4998744 0
4995634 1
4995592 0
4995550 0
4995356 1
4995314 0
4995273 1
5038824 1
5038766 1
4994900 1
4994837 1
5313820 1
5313758 1
4994742 1
4976234 1
--- H2P ---
4976121 1
4976087 0
4976121 1
4976087 0
4976121 1
4976087 0
4976121 1
4976087 0
4976121 1
4976087 0
4976121 1
4976087 0
4976121 1
4976087 0
4976292 1
5034664 1
5034633 0
5034088 1
5034081 0
5032431 1
5031481 1
5031479 0
5031443 1
5031411 1
5031390 0
5031337 1
5031318 0
5031292 1
4976271 1
4976267 0
4976243 0
5023051 1
5023021 1
5022702 1
5022569 1
5021834 1
5021830 0
5008313 1
5008304 0
5008293 0
4999978 1
4999973 0
4999968 0
4999945 0
4998239 1
4995634 1
4995592 0
4995550 0
4995356 1
4995314 0
5015399 1
5015393 0
4998862 1
4998763 0
4998744 0
4995634 1
4995592 0
4995550 0
4995356 1
4995314 0
4995273 1
5038824 1
5038766 1
4994900 1
4994837 1
5313820 1
5313758 1
4994742 1
4976234 1
4976184 1
4976129 0
4976121 0
4976087 0
4976292 1
5034664 1
5034633 0
5034088 1
5034081 0
5032431 1
5031481 1
5031479 0
5031443 1
5031411 1
5031390 0
5031337 1
5031318 0
5031292 1
4976271 1
4976267 0
4976243 0
5023051 1
5023021 1
5022702 1
5022569 1
5021834 1
5021830 0
5008313 1
5008304 0
5008293 0
4999978 1
4999973 0
4999968 0
4999945 0
4998239 1
4995634 1
4995592 0
4995550 0
4995356 1
4995314 0
5015399 1
5015393 0
4998862 1
4998763 0
4998744 0
4995634 1
4995592 0
4995550 0
4995356 1
4995314 0
4995273 1
5038824 1
5038766 1
4994900 1
4994837 1
5313820 1
5313758 1
4994742 1
4976234 1
--- H2P ---
4976087 0
4976121 1
4976087 0
4976121 1
4976087 0
4976121 1
4976087 0
4976121 1
4976087 0
4976121 1
4976087 0
4976121 1
4976087 0
4976121 1
4976087 0
4976292 1
5034664 1
5034633 0
5034088 1
5034081 0
5032431 1
5031481 1
5031479 0
5031443 1
5031411 1
5031390 0
5031337 1
5031318 0
5031292 1
4976271 1
4976267 0
4976243 0
5023051 1
5023021 1
5022702 1
5022569 1
5021834 1
5021830 0
5008313 1
5008304 0
5008293 0
4999978 1
4999973 0
4999968 0
4999945 0
4998239 1
4995634 1
4995592 0
4995550 0
4995356 1
4995314 0
5015399 1
5015393 0
4998862 1
4998763 0
4998744 0
4995634 1
4995592 0
4995550 0
4995356 1
4995314 0
4995273 1
5038824 1
5038766 1
4994900 1
4994837 1
5313820 1
5313758 1
4994742 1
4976234 1
4976184 1
4976129 0
4976121 0
4976087 0
4976292 1
5034664 1
5034633 0
5034088 1
5034081 0
5032431 1
5031481 1
5031479 0
5031443 1
5031411 1
5031390 0
5031337 1
5031318 0
5031292 1
4976271 1
4976267 0
4976243 0
5023051 1
5023021 1
5022702 1
5022569 1
5021834 1
5021830 0
5008313 1
5008304 0
5008293 0
4999978 1
4999973 0
4999968 0
4999945 0
4998239 1
4995634 1
4995592 0
4995550 0
4995356 1
4995314 0
5015399 1
5015393 0
4998862 1
4998763 0
4998744 0
4995634 1
4995592 0
4995550 0
4995356 1
4995314 0
4995273 1
5038824 1
5038766 1
4994900 1
4994837 1
5313820 1
5313758 1
4994742 1
4976234 1
--- H2P ---
4976121 0
4976087 0
4976121 1
4976087 0
4976121 1
4976087 0
4976121 1
4976087 0
4976121 1
4976087 0
4976121 1
4976087 0
4976121 1
4976087 0
4976121 1
4976087 0
4976292 1
5034664 1
5034633 0
5034088 1
5034081 0
5032431 1
5031481 1
5031479 0
5031443 1
5031411 1
5031390 0
5031337 1
5031318 0
5031292 1
4976271 1
4976267 0
4976243 0
5023051 1
5023021 1
5022702 1
5022569 1
5021834 1
5021830 0
5008313 1
5008304 0
5008293 0
4999978 1
4999973 0
4999968 0
4999945 0
4998239 1
4995634 1
4995592 0
4995550 0
4995356 1
4995314 0
5015399 1
5015393 0
4998862 1
4998763 0
4998744 0
4995634 1
4995592 0
4995550 0
4995356 1
4995314 0
4995273 1
5038824 1
5038766 1
4994900 1
4994837 1
5313820 1
5313758 1
4994742 1
4976234 1
4976184 1
4976129 0
4976121 0
4976087 0
4976292 1
5034664 1
5034633 0
5034088 1
5034081 0
5032431 1
5031481 1
5031479 0
5031443 1
5031411 1
5031390 0
5031337 1
5031318 0
5031292 1
4976271 1
4976267 0
4976243 0
5023051 1
5023021 1
5022702 1
5022569 1
5021834 1
5021830 0
5008313 1
5008304 0
5008293 0
4999978 1
4999973 0
4999968 0
4999945 0
4998239 1
4995634 1
4995592 0
4995550 0
4995356 1
4995314 0
5015399 1
5015393 0
4998862 1
4998763 0
4998744 0
4995634 1
4995592 0
4995550 0
4995356 1
4995314 0
4995273 1
5038824 1
5038766 1
4994900 1
4994837 1
5313820 1
5313758 1
4994742 1
4976234 1
--- H2P ---
5015393 0
4998862 1
4998763 0
4998744 0
4995634 1
4995592 0
4995550 0
4995356 1
4995314 0
4995273 1
5038824 1
5038766 1
4994900 1
4994837 1
5313820 1
5313758 1
4994742 1
4976234 1
4976184 1
4976129 0
4976121 0
4976087 0
4976121 1
4976087 0
4976121 1
4976087 0
4976121 1
4976087 0
4976121 1
4976087 0
4976121 1
4976087 0
4976121 1
4976087 0
4976121 1
4976087 0
4976292 1
5034664 1
5034633 0
5034088 1
5034081 0
5032431 1
5031481 1
5031479 0
5031443 1
5031411 1
5031390 0
5031337 1
5031318 0
5031292 1
4976271 1
4976267 0
4976243 0
5023051 1
5023021 1
5022702 1
5022569 1
5021834 1
5021830 0
5008313 1
5008304 0
5008293 0
4999978 1
4999973 0
4999968 0
4999945 0
4998239 1
4995634 1
4995592 0
4995550 0
4995356 1
4995314 0
5015399 1
5015393 0
4998862 1
4998763 0
4998744 0
4995634 1
4995592 0
4995550 0
4995356 1
4995314 0
4995273 1
5038824 1
5038766 1
4994900 1
4994837 1
5313820 1
5313758 1
4994742 1
4976234 1
4976184 1
4976129 0
4976121 0
4976087 0
4976292 1
5034664 1
5034633 0
5034088 1
5034081 0
5032431 1
5031481 1
5031479 0
5031443 1
5031411 1
5031390 0
5031337 1
5031318 0
5031292 1
4976271 1
4976267 0
4976243 0
5023051 1
5023021 1
5022702 1
5022569 1
5021834 1
5021830 0
5008313 1
5008304 0
5008293 0
4999978 1
4999973 0
4999968 0
4999945 0
4998239 1
4995634 1
4995592 0
4995550 0
4995356 1
4995314 0
5015399 1
5015393 0
4998862 1
4998763 0
4998744 0
4995634 1
4995592 0
4995550 0
4995356 1
4995314 0
4995273 1
5038824 1
5038766 1
4994900 1
4994837 1
5313820 1
5313758 1
4994742 1
4976234 1
--- H2P ---
5008304 0
5008293 0
4999978 1
4999973 0
4999968 0
4999945 0
4998239 1
4995634 1
4995592 0
4995550 0
4995356 1
4995314 0
5015399 1
5015393 0
4998862 1
4998763 0
4998744 0
4995634 1
4995592 0
4995550 0
4995356 1
4995314 0
4995273 1
5038824 1
5038766 1
4994900 1
4994837 1
5313820 1
5313758 1
4994742 1
4976234 1
4976184 1
4976129 0
4976121 0
4976087 0
4976121 1
4976087 0
4976121 1
4976087 0
4976121 1
4976087 0
4976121 1
4976087 0
4976121 1
4976087 0
4976121 1
4976087 0
4976121 1
4976087 0
4976292 1
5034664 1
5034633 0
5034088 1
5034081 0
5032431 1
5031481 1
5031479 0
5031443 1
5031411 1
5031390 0
5031337 1
5031318 0
5031292 1
4976271 1
4976267 0
4976243 0
5023051 1
5023021 1
5022702 1
5022569 1
5021834 1
5021830 0
5008313 1
5008304 0
5008293 0
4999978 1
4999973 0
4999968 0
4999945 0
4998239 1
4995634 1
4995592 0
4995550 0
4995356 1
4995314 0
5015399 1
5015393 0
4998862 1
4998763 0
4998744 0
4995634 1
4995592 0
4995550 0
4995356 1
4995314 0
4995273 1
5038824 1
5038766 1
4994900 1
4994837 1
5313820 1
5313758 1
4994742 1
4976234 1
4976184 1
4976129 0
4976121 0
4976087 0
4976292 1
5034664 1
5034633 0
5034088 1
5034081 0
5032431 1
5031481 1
5031479 0
5031443 1
5031411 1
5031390 0
5031337 1
5031318 0
5031292 1
4976271 1
4976267 0
4976243 0
5023051 1
5023021 1
5022702 1
5022569 1
5021834 1
5021830 0
5008313 1
5008304 0
5008293 0
4999978 1
4999973 0
4999968 0
4999945 0
4998239 1
4995634 1
4995592 0
4995550 0
4995356 1
4995314 0
5015399 1
5015393 0
4998862 1
4998763 0
4998744 0
4995634 1
4995592 0
4995550 0
4995356 1
4995314 0
4995273 1
5038824 1
5038766 1
4994900 1
4994837 1
5313820 1
5313758 1
4994742 1
4976234 1
--- H2P ---
5008313 1
5008304 0
5008293 0
4999978 1
4999973 0
4999968 0
4999945 0
4998239 1
4995634 1
4995592 0
4995550 0
4995356 1
4995314 0
5015399 1
5015393 0
4998862 1
4998763 0
4998744 0
4995634 1
4995592 0
4995550 0
4995356 1
4995314 0
4995273 1
5038824 1
5038766 1
4994900 1
4994837 1
5313820 1
5313758 1
4994742 1
4976234 1
4976184 1
4976129 0
4976121 0
4976087 0
4976121 1
4976087 0
4976121 1
4976087 0
4976121 1
4976087 0
4976121 1
4976087 0
4976121 1
4976087 0
4976121 1
4976087 0
4976121 1
4976087 0
4976292 1
5034664 1
5034633 0
5034088 1
5034081 0
5032431 1
5031481 1
5031479 0
5031443 1
5031411 1
5031390 0
5031337 1
5031318 0
5031292 1
4976271 1
4976267 0
4976243 0
5023051 1
5023021 1
5022702 1
5022569 1
5021834 1
5021830 0
5008313 1
5008304 0
5008293 0
4999978 1
4999973 0
4999968 0
4999945 0
4998239 1
4995634 1
4995592 0
4995550 0
4995356 1
4995314 0
5015399 1
5015393 0
4998862 1
4998763 0
4998744 0
4995634 1
4995592 0
4995550 0
4995356 1
4995314 0
4995273 1
5038824 1
5038766 1
4994900 1
4994837 1
5313820 1
5313758 1
4994742 1
4976234 1
4976184 1
4976129 0
4976121 0
4976087 0
4976292 1
5034664 1
5034633 0
5034088 1
5034081 0
5032431 1
5031481 1
5031479 0
5031443 1
5031411 1
5031390 0
5031337 1
5031318 0
5031292 1
4976271 1
4976267 0
4976243 0
5023051 1
5023021 1
5022702 1
5022569 1
5021834 1
5021830 0
5008313 1
5008304 0
5008293 0
4999978 1
4999973 0
4999968 0
4999945 0
4998239 1
4995634 1
4995592 0
4995550 0
4995356 1
4995314 0
5015399 1
5015393 0
4998862 1
4998763 0
4998744 0
4995634 1
4995592 0
4995550 0
4995356 1
4995314 0
4995273 1
5038824 1
5038766 1
4994900 1
4994837 1
5313820 1
5313758 1
4994742 1
4976234 1
--- H2P ---
4976087 0
4976292 1
5034664 1
5034633 0
5034088 1
5034081 0
5032431 1
5031481 1
5031479 0
5031443 1
5031411 1
5031390 0
5031337 1
5031318 0
5031292 1
4976271 1
4976267 0
4976243 0
5023051 1
5023021 1
5022702 1
5022569 1
5021834 1
5021830 0
5008313 1
5008304 0
5008293 0
4999978 1
4999973 0
4999968 0
4999945 0
4998239 1
4995634 1
4995592 0
4995550 0
4995356 1
4995314 0
5015399 1
5015393 0
4998862 1
4998763 0
4998744 0
4995634 1
4995592 0
4995550 0
4995356 1
4995314 0
4995273 1
5038824 1
5038766 1
4994900 1
4994837 1
5313820 1
5313758 1
4994742 1
4976234 1
4976184 1
4976129 0
4976121 0
4976087 0
4976121 1
4976087 0
4976121 1
4976087 0
4976121 1
4976087 0
4976121 1
4976087 0
4976121 1
4976087 0
4976121 1
4976087 0
4976121 1
4976087 0
4976292 1
5034664 1
5034633 0
5034088 1
5034081 0
5032431 1
5031481 1
5031479 0
5031443 1
5031411 1
5031390 0
5031337 1
5031318 0
5031292 1
4976271 1
4976267 0
4976243 0
5023051 1
5023021 1
5022702 1
5022569 1
5021834 1
5021830 0
5008313 1
5008304 0
5008293 0
4999978 1
4999973 0
4999968 0
4999945 0
4998239 1
4995634 1
4995592 0
4995550 0
4995356 1
4995314 0
5015399 1
5015393 0
4998862 1
4998763 0
4998744 0
4995634 1
4995592 0
4995550 0
4995356 1
4995314 0
4995273 1
5038824 1
5038766 1
4994900 1
4994837 1
5313820 1
5313758 1
4994742 1
4976234 1
4976184 1
4976129 0
4976121 0
4976087 0
4976292 1
5034664 1
5034633 0
5034088 1
5034081 0
5032431 1
5031481 1
5031479 0
5031443 1
5031411 1
5031390 0
5031337 1
5031318 0
5031292 1
4976271 1
4976267 0
4976243 0
5023051 1
5023021 1
5022702 1
5022569 1
5021834 1
5021830 0
5008313 1
5008304 0
5008293 0
4999978 1
4999973 0
4999968 0
4999945 0
4998239 1
4995634 1
4995592 0
4995550 0
4995356 1
4995314 0
5015399 1
5015393 0
4998862 1
4998763 0
4998744 0
4995634 1
4995592 0
4995550 0
4995356 1
4995314 0
4995273 1
5038824 1
5038766 1
4994900 1
4994837 1
5313820 1
5313758 1
4994742 1
4976234 1
--- H2P ---
4976121 0
4976087 0
4976292 1
5034664 1
5034633 0
5034088 1
5034081 0
5032431 1
5031481 1
5031479 0
5031443 1
5031411 1
5031390 0
5031337 1
5031318 0
5031292 1
4976271 1
4976267 0
4976243 0
5023051 1
5023021 1
5022702 1
5022569 1
5021834 1
5021830 0
5008313 1
5008304 0
5008293 0
4999978 1
4999973 0
4999968 0
4999945 0
4998239 1
4995634 1
4995592 0
4995550 0
4995356 1
4995314 0
5015399 1
5015393 0
4998862 1
4998763 0
4998744 0
4995634 1
4995592 0
4995550 0
4995356 1
4995314 0
4995273 1
5038824 1
5038766 1
4994900 1
4994837 1
5313820 1
5313758 1
4994742 1
4976234 1
4976184 1
4976129 0
4976121 0
4976087 0
4976121 1
4976087 0
4976121 1
4976087 0
4976121 1
4976087 0
4976121 1
4976087 0
4976121 1
4976087 0
4976121 1
4976087 0
4976121 1
4976087 0
4976292 1
5034664 1
5034633 0
5034088 1
5034081 0
5032431 1
5031481 1
5031479 0
5031443 1
5031411 1
5031390 0
5031337 1
5031318 0
5031292 1
4976271 1
4976267 0
4976243 0
5023051 1
5023021 1
5022702 1
5022569 1
5021834 1
5021830 0
5008313 1
5008304 0
5008293 0
4999978 1
4999973 0
4999968 0
4999945 0
4998239 1
4995634 1
4995592 0
4995550 0
4995356 1
4995314 0
5015399 1
5015393 0
4998862 1
4998763 0
4998744 0
4995634 1
4995592 0
4995550 0
4995356 1
4995314 0
4995273 1
5038824 1
5038766 1
4994900 1
4994837 1
5313820 1
5313758 1
4994742 1
4976234 1
4976184 1
4976129 0
4976121 0
4976087 0
4976292 1
5034664 1
5034633 0
5034088 1
5034081 0
5032431 1
5031481 1
5031479 0
5031443 1
5031411 1
5031390 0
5031337 1
5031318 0
5031292 1
4976271 1
4976267 0
4976243 0
5023051 1
5023021 1
5022702 1
5022569 1
5021834 1
5021830 0
5008313 1
5008304 0
5008293 0
4999978 1
4999973 0
4999968 0
4999945 0
4998239 1
4995634 1
4995592 0
4995550 0
4995356 1
4995314 0
5015399 1
5015393 0
4998862 1
4998763 0
4998744 0
4995634 1
4995592 0
4995550 0
4995356 1
4995314 0
4995273 1
5038824 1
5038766 1
4994900 1
4994837 1
5313820 1
5313758 1
4994742 1
4976234 1
--- H2P ---
5015393 0
4998862 1
4998763 0
4998744 0
4995634 1
4995592 0
4995550 0
4995356 1
4995314 0
4995273 1
5038824 1
5038766 1
4994900 1
4994837 1
5313820 1
5313758 1
4994742 1
4976234 1
4976184 1
4976129 0
4976121 0
4976087 0
4976292 1
5034664 1
5034633 0
5034088 1
5034081 0
5032431 1
5031481 1
5031479 0
5031443 1
5031411 1
5031390 0
5031337 1
5031318 0
5031292 1
4976271 1
4976267 0
4976243 0
5023051 1
5023021 1
5022702 1
5022569 1
5021834 1
5021830 0
5008313 1
5008304 0
5008293 0
4999978 1
4999973 0
4999968 0
4999945 0
4998239 1
4995634 1
4995592 0
4995550 0
4995356 1
4995314 0
5015399 1
5015393 0
4998862 1
4998763 0
4998744 0
4995634 1
4995592 0
4995550 0
4995356 1
4995314 0
4995273 1
5038824 1
5038766 1
4994900 1
4994837 1
5313820 1
5313758 1
4994742 1
4976234 1
4976184 1
4976129 0
4976121 0
4976087 0
4976121 1
4976087 0
4976121 1
4976087 0
4976121 1
4976087 0
4976121 1
4976087 0
4976121 1
4976087 0
4976121 1
4976087 0
4976121 1
4976087 0
4976292 1
5034664 1
5034633 0
5034088 1
5034081 0
5032431 1
5031481 1
5031479 0
5031443 1
5031411 1
5031390 0
5031337 1
5031318 0
5031292 1
4976271 1
4976267 0
4976243 0
5023051 1
5023021 1
5022702 1
5022569 1
5021834 1
5021830 0
5008313 1
5008304 0
5008293 0
4999978 1
4999973 0
4999968 0
4999945 0
4998239 1
4995634 1
4995592 0
4995550 0
4995356 1
4995314 0
5015399 1
5015393 0
4998862 1
4998763 0
4998744 0
4995634 1
4995592 0
4995550 0
4995356 1
4995314 0
4995273 1
5038824 1
5038766 1
4994900 1
4994837 1
5313820 1
5313758 1
4994742 1
4976234 1
4976184 1
4976129 0
4976121 0
4976087 0
4976292 1
5034664 1
5034633 0
5034088 1
5034081 0
5032431 1
5031481 1
5031479 0
5031443 1
5031411 1
5031390 0
5031337 1
5031318 0
5031292 1
4976271 1
4976267 0
4976243 0
5023051 1
5023021 1
5022702 1
5022569 1
5021834 1
5021830 0
5008313 1
5008304 0
5008293 0
4999978 1
4999973 0
4999968 0
4999945 0
4998239 1
4995634 1
4995592 0
4995550 0
4995356 1
4995314 0
5015399 1
5015393 0
4998862 1
4998763 0
4998744 0
4995634 1
4995592 0
4995550 0
4995356 1
4995314 0
4995273 1
--- H2P ---
5008304 0
5008293 0
4999978 1
4999973 0
4999968 0
4999945 0
4998239 1
4995634 1
4995592 0
4995550 0
4995356 1
4995314 0
5015399 1
5015393 0
4998862 1
4998763 0
4998744 0
4995634 1
4995592 0
4995550 0
4995356 1
4995314 0
4995273 1
5038824 1
5038766 1
4994900 1
4994837 1
5313820 1
5313758 1
4994742 1
4976234 1
4976184 1
4976129 0
4976121 0
4976087 0
4976292 1
5034664 1
5034633 0
5034088 1
5034081 0
5032431 1
5031481 1
5031479 0
5031443 1
5031411 1
5031390 0
5031337 1
5031318 0
5031292 1
4976271 1
4976267 0
4976243 0
5023051 1
5023021 1
5022702 1
5022569 1
5021834 1
5021830 0
5008313 1
5008304 0
5008293 0
4999978 1
4999973 0
4999968 0
4999945 0
4998239 1
4995634 1
4995592 0
4995550 0
4995356 1
4995314 0
5015399 1
5015393 0
4998862 1
4998763 0
4998744 0
4995634 1
4995592 0
4995550 0
4995356 1
4995314 0
4995273 1
5038824 1
5038766 1
4994900 1
4994837 1
5313820 1
5313758 1
4994742 1
4976234 1
4976184 1
4976129 0
4976121 0
4976087 0
4976121 1
4976087 0
4976121 1
4976087 0
4976121 1
4976087 0
4976121 1
4976087 0
4976121 1
4976087 0
4976121 1
4976087 0
4976121 1
4976087 0
4976292 1
5034664 1
5034633 0
5034088 1
5034081 0
5032431 1
5031481 1
5031479 0
5031443 1
5031411 1
5031390 0
5031337 1
5031318 0
5031292 1
4976271 1
4976267 0
4976243 0
5023051 1
5023021 1
5022702 1
5022569 1
5021834 1
5021830 0
5008313 1
5008304 0
5008293 0
4999978 1
4999973 0
4999968 0
4999945 0
4998239 1
4995634 1
4995592 0
4995550 0
4995356 1
4995314 0
5015399 1
5015393 0
4998862 1
4998763 0
4998744 0
4995634 1
4995592 0
4995550 0
4995356 1
4995314 0
4995273 1
5038824 1
5038766 1
4994900 1
4994837 1
5313820 1
5313758 1
4994742 1
4976234 1
4976184 1
4976129 0
4976121 0
4976087 0
4976292 1
5034664 1
5034633 0
5034088 1
5034081 0
5032431 1
5031481 1
5031479 0
5031443 1
5031411 1
5031390 0
5031337 1
5031318 0
5031292 1
4976271 1
4976267 0
4976243 0
5023051 1
5023021 1
5022702 1
5022569 1
5021834 1
5021830 0
5008313 1
5008304 0
5008293 0
4999978 1
4999973 0
4999968 0
4999945 0
4998239 1
4995634 1
4995592 0
4995550 0
--- H2P ---
5008313 1
5008304 0
5008293 0
4999978 1
4999973 0
4999968 0
4999945 0
4998239 1
4995634 1
4995592 0
4995550 0
4995356 1
4995314 0
5015399 1
5015393 0
4998862 1
4998763 0
4998744 0
4995634 1
4995592 0
4995550 0
4995356 1
4995314 0
4995273 1
5038824 1
5038766 1
4994900 1
4994837 1
5313820 1
5313758 1
4994742 1
4976234 1
4976184 1
4976129 0
4976121 0
4976087 0
4976292 1
5034664 1
5034633 0
5034088 1
5034081 0
5032431 1
5031481 1
5031479 0
5031443 1
5031411 1
5031390 0
5031337 1
5031318 0
5031292 1
4976271 1
4976267 0
4976243 0
5023051 1
5023021 1
5022702 1
5022569 1
5021834 1
5021830 0
5008313 1
5008304 0
5008293 0
4999978 1
4999973 0
4999968 0
4999945 0
4998239 1
4995634 1
4995592 0
4995550 0
4995356 1
4995314 0
5015399 1
5015393 0
4998862 1
4998763 0
4998744 0
4995634 1
4995592 0
4995550 0
4995356 1
4995314 0
4995273 1
5038824 1
5038766 1
4994900 1
4994837 1
5313820 1
5313758 1
4994742 1
4976234 1
4976184 1
4976129 0
4976121 0
4976087 0
4976121 1
4976087 0
4976121 1
4976087 0
4976121 1
4976087 0
4976121 1
4976087 0
4976121 1
4976087 0
4976121 1
4976087 0
4976121 1
4976087 0
4976292 1
5034664 1
5034633 0
5034088 1
5034081 0
5032431 1
5031481 1
5031479 0
5031443 1
5031411 1
5031390 0
5031337 1
5031318 0
5031292 1
4976271 1
4976267 0
4976243 0
5023051 1
5023021 1
5022702 1
5022569 1
5021834 1
5021830 0
5008313 1
5008304 0
5008293 0
4999978 1
4999973 0
4999968 0
4999945 0
4998239 1
4995634 1
4995592 0
4995550 0
4995356 1
4995314 0
5015399 1
5015393 0
4998862 1
4998763 0
4998744 0
4995634 1
4995592 0
4995550 0
4995356 1
4995314 0
4995273 1
5038824 1
5038766 1
4994900 1
4994837 1
5313820 1
5313758 1
4994742 1
4976234 1
4976184 1
4976129 0
4976121 0
4976087 0
4976292 1
5034664 1
5034633 0
5034088 1
5034081 0
5032431 1
5031481 1
5031479 0
5031443 1
5031411 1
5031390 0
5031337 1
5031318 0
5031292 1
4976271 1
4976267 0
4976243 0
5023051 1
5023021 1
5022702 1
5022569 1
5021834 1
5021830 0
5008313 1
5008304 0
5008293 0
4999978 1
4999973 0
4999968 0
4999945 0
4998239 1
4995634 1
4995592 0
--- H2P ---
4976087 0
4976292 1
5034664 1
5034633 0
5034088 1
5034081 0
5032431 1
5031481 1
5031479 0
5031443 1
5031411 1
5031390 0
5031337 1
5031318 0
5031292 1
4976271 1
4976267 0
4976243 0
5023051 1
5023021 1
5022702 1
5022569 1
5021834 1
5021830 0
5008313 1
5008304 0
5008293 0
4999978 1
4999973 0
4999968 0
4999945 0
4998239 1
4995634 1
4995592 0
4995550 0
4995356 1
4995314 0
5015399 1
5015393 0
4998862 1
4998763 0
4998744 0
4995634 1
4995592 0
4995550 0
4995356 1
4995314 0
4995273 1
5038824 1
5038766 1
4994900 1
4994837 1
5313820 1
5313758 1
4994742 1
4976234 1
4976184 1
4976129 0
4976121 0
4976087 0
4976292 1
5034664 1
5034633 0
5034088 1
5034081 0
5032431 1
5031481 1
5031479 0
5031443 1
5031411 1
5031390 0
5031337 1
5031318 0
5031292 1
4976271 1
4976267 0
4976243 0
5023051 1
5023021 1
5022702 1
5022569 1
5021834 1
5021830 0
5008313 1
5008304 0
5008293 0
4999978 1
4999973 0
4999968 0
4999945 0
4998239 1
4995634 1
4995592 0
4995550 0
4995356 1
4995314 0
5015399 1
5015393 0
4998862 1
4998763 0
4998744 0
4995634 1
4995592 0
4995550 0
4995356 1
4995314 0
4995273 1
5038824 1
5038766 1
4994900 1
4994837 1
5313820 1
5313758 1
4994742 1
4976234 1
4976184 1
4976129 0
4976121 0
4976087 0
4976121 1
4976087 0
4976121 1
4976087 0
4976121 1
4976087 0
4976121 1
4976087 0
4976121 1
4976087 0
4976121 1
4976087 0
4976121 1
4976087 0
4976292 1
5034664 1
5034633 0
5034088 1
5034081 0
5032431 1
5031481 1
5031479 0
5031443 1
5031411 1
5031390 0
5031337 1
5031318 0
5031292 1
4976271 1
4976267 0
4976243 0
5023051 1
5023021 1
5022702 1
5022569 1
5021834 1
5021830 0
5008313 1
5008304 0
5008293 0
4999978 1
4999973 0
4999968 0
4999945 0
4998239 1
4995634 1
4995592 0
4995550 0
4995356 1
4995314 0
5015399 1
5015393 0
4998862 1
4998763 0
4998744 0
4995634 1
4995592 0
4995550 0
4995356 1
4995314 0
4995273 1
5038824 1
5038766 1
4994900 1
4994837 1
5313820 1
5313758 1
4994742 1
4976234 1
4976184 1
4976129 0
4976121 0
4976087 0
4976292 1
5034664 1
5034633 0
5034088 1
5034081 0
5032431 1
5031481 1
5031479 0
5031443 1
--- H2P ---
4976121 1
4976087 0
4976292 1
5034664 1
5034633 0
5034088 1
5034081 0
5032431 1
5031481 1
5031479 0
5031443 1
5031411 1
5031390 0
5031337 1
5031318 0
5031292 1
4976271 1
4976267 0
4976243 0
5023051 1
5023021 1
5022702 1
5022569 1
5021834 1
5021830 0
5008313 1
5008304 0
5008293 0
4999978 1
4999973 0
4999968 0
4999945 0
4998239 1
4995634 1
4995592 0
4995550 0
4995356 1
4995314 0
5015399 1
5015393 0
4998862 1
4998763 0
4998744 0
4995634 1
4995592 0
4995550 0
4995356 1
4995314 0
4995273 1
5038824 1
5038766 1
4994900 1
4994837 1
5313820 1
5313758 1
4994742 1
4976234 1
4976184 1
4976129 0
4976121 0
4976087 0
4976292 1
5034664 1
5034633 0
5034088 1
5034081 0
5032431 1
5031481 1
5031479 0
5031443 1
5031411 1
5031390 0
5031337 1
5031318 0
5031292 1
4976271 1
4976267 0
4976243 0
5023051 1
5023021 1
5022702 1
5022569 1
5021834 1
5021830 0
5008313 1
5008304 0
5008293 0
4999978 1
4999973 0
4999968 0
4999945 0
4998239 1
4995634 1
4995592 0
4995550 0
4995356 1
4995314 0
5015399 1
5015393 0
4998862 1
4998763 0
4998744 0
4995634 1
4995592 0
4995550 0
4995356 1
4995314 0
4995273 1
5038824 1
5038766 1
4994900 1
4994837 1
5313820 1
5313758 1
4994742 1
4976234 1
4976184 1
4976129 0
4976121 0
4976087 0
4976121 1
4976087 0
4976121 1
4976087 0
4976121 1
4976087 0
4976121 1
4976087 0
4976121 1
4976087 0
4976121 1
4976087 0
4976121 1
4976087 0
4976292 1
5034664 1
5034633 0
5034088 1
5034081 0
5032431 1
5031481 1
5031479 0
5031443 1
5031411 1
5031390 0
5031337 1
5031318 0
5031292 1
4976271 1
4976267 0
4976243 0
5023051 1
5023021 1
5022702 1
5022569 1
5021834 1
5021830 0
5008313 1
5008304 0
5008293 0
4999978 1
4999973 0
4999968 0
4999945 0
4998239 1
4995634 1
4995592 0
4995550 0
4995356 1
4995314 0
5015399 1
5015393 0
4998862 1
4998763 0
4998744 0
4995634 1
4995592 0
4995550 0
4995356 1
4995314 0
4995273 1
5038824 1
5038766 1
4994900 1
4994837 1
5313820 1
5313758 1
4994742 1
4976234 1
4976184 1
4976129 0
4976121 0
4976087 0
4976292 1
5034664 1
5034633 0
5034088 1
5034081 0
5032431 1
5031481 1
5031479 0
--- H2P ---
4976087 0
4976121 1
4976087 0
4976292 1
5034664 1
5034633 0
5034088 1
5034081 0
5032431 1
5031481 1
5031479 0
5031443 1
5031411 1
5031390 0
5031337 1
5031318 0
5031292 1
4976271 1
4976267 0
4976243 0
5023051 1
5023021 1
5022702 1
5022569 1
5021834 1
5021830 0
5008313 1
5008304 0
5008293 0
4999978 1
4999973 0
4999968 0
4999945 0
4998239 1
4995634 1
4995592 0
4995550 0
4995356 1
4995314 0
5015399 1
5015393 0
4998862 1
4998763 0
4998744 0
4995634 1
4995592 0
4995550 0
4995356 1
4995314 0
4995273 1
5038824 1
5038766 1
4994900 1
4994837 1
5313820 1
5313758 1
4994742 1
4976234 1
4976184 1
4976129 0
4976121 0
4976087 0
4976292 1
5034664 1
5034633 0
5034088 1
5034081 0
5032431 1
5031481 1
5031479 0
5031443 1
5031411 1
5031390 0
5031337 1
5031318 0
5031292 1
4976271 1
4976267 0
4976243 0
5023051 1
5023021 1
5022702 1
5022569 1
5021834 1
5021830 0
5008313 1
5008304 0
5008293 0
4999978 1
4999973 0
4999968 0
4999945 0
4998239 1
4995634 1
4995592 0
4995550 0
4995356 1
4995314 0
5015399 1
5015393 0
4998862 1
4998763 0
4998744 0
4995634 1
4995592 0
4995550 0
4995356 1
4995314 0
4995273 1
5038824 1
5038766 1
4994900 1
4994837 1
5313820 1
5313758 1
4994742 1
4976234 1
4976184 1
4976129 0
4976121 0
4976087 0
4976121 1
4976087 0
4976121 1
4976087 0
4976121 1
4976087 0
4976121 1
4976087 0
4976121 1
4976087 0
4976121 1
4976087 0
4976121 1
4976087 0
4976292 1
5034664 1
5034633 0
5034088 1
5034081 0
5032431 1
5031481 1
5031479 0
5031443 1
5031411 1
5031390 0
5031337 1
5031318 0
5031292 1
4976271 1
4976267 0
4976243 0
5023051 1
5023021 1
5022702 1
5022569 1
5021834 1
5021830 0
5008313 1
5008304 0
5008293 0
4999978 1
4999973 0
4999968 0
4999945 0
4998239 1
4995634 1
4995592 0
4995550 0
4995356 1
4995314 0
5015399 1
5015393 0
4998862 1
4998763 0
4998744 0
4995634 1
4995592 0
4995550 0
4995356 1
4995314 0
4995273 1
5038824 1
5038766 1
4994900 1
4994837 1
5313820 1
5313758 1
4994742 1
4976234 1
4976184 1
4976129 0
4976121 0
4976087 0
4976292 1
5034664 1
5034633 0
5034088 1
5034081 0
5032431 1
5031481 1
--- H2P ---
4976121 1
4976087 0
4976121 1
4976087 0
4976292 1
5034664 1
5034633 0
5034088 1
5034081 0
5032431 1
5031481 1
5031479 0
5031443 1
5031411 1
5031390 0
5031337 1
5031318 0
5031292 1
4976271 1
4976267 0
4976243 0
5023051 1
5023021 1
5022702 1
5022569 1
5021834 1
5021830 0
5008313 1
5008304 0
5008293 0
4999978 1
4999973 0
4999968 0
4999945 0
4998239 1
4995634 1
4995592 0
4995550 0
4995356 1
4995314 0
5015399 1
5015393 0
4998862 1
4998763 0
4998744 0
4995634 1
4995592 0
4995550 0
4995356 1
4995314 0
4995273 1
5038824 1
5038766 1
4994900 1
4994837 1
5313820 1
5313758 1
4994742 1
4976234 1
4976184 1
4976129 0
4976121 0
4976087 0
4976292 1
5034664 1
5034633 0
5034088 1
5034081 0
5032431 1
5031481 1
5031479 0
5031443 1
5031411 1
5031390 0
5031337 1
5031318 0
5031292 1
4976271 1
4976267 0
4976243 0
5023051 1
5023021 1
5022702 1
5022569 1
5021834 1
5021830 0
5008313 1
5008304 0
5008293 0
4999978 1
4999973 0
4999968 0
4999945 0
4998239 1
4995634 1
4995592 0
4995550 0
4995356 1
4995314 0
5015399 1
5015393 0
4998862 1
4998763 0
4998744 0
4995634 1
4995592 0
4995550 0
4995356 1
4995314 0
4995273 1
5038824 1
5038766 1
4994900 1
4994837 1
5313820 1
5313758 1
4994742 1
4976234 1
4976184 1
4976129 0
4976121 0
4976087 0
4976121 1
4976087 0
4976121 1
4976087 0
4976121 1
4976087 0
4976121 1
4976087 0
4976121 1
4976087 0
4976121 1
4976087 0
4976121 1
4976087 0
4976292 1
5034664 1
5034633 0
5034088 1
5034081 0
5032431 1
5031481 1
5031479 0
5031443 1
5031411 1
5031390 0
5031337 1
5031318 0
5031292 1
4976271 1
4976267 0
4976243 0
5023051 1
5023021 1
5022702 1
5022569 1
5021834 1
5021830 0
5008313 1
5008304 0
5008293 0
4999978 1
4999973 0
4999968 0
4999945 0
4998239 1
4995634 1
4995592 0
4995550 0
4995356 1
4995314 0
5015399 1
5015393 0
4998862 1
4998763 0
4998744 0
4995634 1
4995592 0
4995550 0
4995356 1
4995314 0
4995273 1
5038824 1
5038766 1
4994900 1
4994837 1
5313820 1
5313758 1
4994742 1
4976234 1
4976184 1
4976129 0
4976121 0
4976087 0
4976292 1
5034664 1
5034633 0
5034088 1
5034081 0
5032431 1
--- H2P ---
4976087 0
4976121 1
4976087 0
4976121 1
4976087 0
4976292 1
5034664 1
5034633 0
5034088 1
5034081 0
5032431 1
5031481 1
5031479 0
5031443 1
5031411 1
5031390 0
5031337 1
5031318 0
5031292 1
4976271 1
4976267 0
4976243 0
5023051 1
5023021 1
5022702 1
5022569 1
5021834 1
5021830 0
5008313 1
5008304 0
5008293 0
4999978 1
4999973 0
4999968 0
4999945 0
4998239 1
4995634 1
4995592 0
4995550 0
4995356 1
4995314 0
5015399 1
5015393 0
4998862 1
4998763 0
4998744 0
4995634 1
4995592 0
4995550 0
4995356 1
4995314 0
4995273 1
5038824 1
5038766 1
4994900 1
4994837 1
5313820 1
5313758 1
4994742 1
4976234 1
4976184 1
4976129 0
4976121 0
4976087 0
4976292 1
5034664 1
5034633 0
5034088 1
5034081 0
5032431 1
5031481 1
5031479 0
5031443 1
5031411 1
5031390 0
5031337 1
5031318 0
5031292 1
4976271 1
4976267 0
4976243 0
5023051 1
5023021 1
5022702 1
5022569 1
5021834 1
5021830 0
5008313 1
5008304 0
5008293 0
4999978 1
4999973 0
4999968 0
4999945 0
4998239 1
4995634 1
4995592 0
4995550 0
4995356 1
4995314 0
5015399 1
5015393 0
4998862 1
4998763 0
4998744 0
4995634 1
4995592 0
4995550 0
4995356 1
4995314 0
4995273 1
5038824 1
5038766 1
4994900 1
4994837 1
5313820 1
5313758 1
4994742 1
4976234 1
4976184 1
4976129 0
4976121 0
4976087 0
4976121 1
4976087 0
4976121 1
4976087 0
4976121 1
4976087 0
4976121 1
4976087 0
4976121 1
4976087 0
4976121 1
4976087 0
4976121 1
4976087 0
4976292 1
5034664 1
5034633 0
5034088 1
5034081 0
5032431 1
5031481 1
5031479 0
5031443 1
5031411 1
5031390 0
5031337 1
5031318 0
5031292 1
4976271 1
4976267 0
4976243 0
5023051 1
5023021 1
5022702 1
5022569 1
5021834 1
5021830 0
5008313 1
5008304 0
5008293 0
4999978 1
4999973 0
4999968 0
4999945 0
4998239 1
4995634 1
4995592 0
4995550 0
4995356 1
4995314 0
5015399 1
5015393 0
4998862 1
4998763 0
4998744 0
4995634 1
4995592 0
4995550 0
4995356 1
4995314 0
4995273 1
5038824 1
5038766 1
4994900 1
4994837 1
5313820 1
5313758 1
4994742 1
4976234 1
4976184 1
4976129 0
4976121 0
4976087 0
4976292 1
5034664 1
5034633 0
5034088 1
5034081 0
--- H2P ---
4976121 1
4976087 0
4976121 1
4976087 0
4976121 1
4976087 0
4976292 1
5034664 1
5034633 0
5034088 1
5034081 0
5032431 1
5031481 1
5031479 0
5031443 1
5031411 1
5031390 0
5031337 1
5031318 0
5031292 1
4976271 1
4976267 0
4976243 0
5023051 1
5023021 1
5022702 1
5022569 1
5021834 1
5021830 0
5008313 1
5008304 0
5008293 0
4999978 1
4999973 0
4999968 0
4999945 0
4998239 1
4995634 1
4995592 0
4995550 0
4995356 1
4995314 0
5015399 1
5015393 0
4998862 1
4998763 0
4998744 0
4995634 1
4995592 0
4995550 0
4995356 1
4995314 0
4995273 1
5038824 1
5038766 1
4994900 1
4994837 1
5313820 1
5313758 1
4994742 1
4976234 1
4976184 1
4976129 0
4976121 0
4976087 0
4976292 1
5034664 1
5034633 0
5034088 1
5034081 0
5032431 1
5031481 1
5031479 0
5031443 1
5031411 1
5031390 0
5031337 1
5031318 0
5031292 1
4976271 1
4976267 0
4976243 0
5023051 1
5023021 1
5022702 1
5022569 1
5021834 1
5021830 0
5008313 1
5008304 0
5008293 0
4999978 1
4999973 0
4999968 0
4999945 0
4998239 1
4995634 1
4995592 0
4995550 0
4995356 1
4995314 0
5015399 1
5015393 0
4998862 1
4998763 0
4998744 0
4995634 1
4995592 0
4995550 0
4995356 1
4995314 0
4995273 1
5038824 1
5038766 1
4994900 1
4994837 1
5313820 1
5313758 1
4994742 1
4976234 1
4976184 1
4976129 0
4976121 0
4976087 0
4976121 1
4976087 0
4976121 1
4976087 0
4976121 1
4976087 0
4976121 1
4976087 0
4976121 1
4976087 0
4976121 1
4976087 0
4976121 1
4976087 0
4976292 1
5034664 1
5034633 0
5034088 1
5034081 0
5032431 1
5031481 1
5031479 0
5031443 1
5031411 1
5031390 0
5031337 1
5031318 0
5031292 1
4976271 1
4976267 0
4976243 0
5023051 1
5023021 1
5022702 1
5022569 1
5021834 1
5021830 0
5008313 1
5008304 0
5008293 0
4999978 1
4999973 0
4999968 0
4999945 0
4998239 1
4995634 1
4995592 0
4995550 0
4995356 1
4995314 0
5015399 1
5015393 0
4998862 1
4998763 0
4998744 0
4995634 1
4995592 0
4995550 0
4995356 1
4995314 0
4995273 1
5038824 1
5038766 1
4994900 1
4994837 1
5313820 1
5313758 1
4994742 1
4976234 1
4976184 1
4976129 0
4976121 0
4976087 0
4976292 1
5034664 1
5034633 0
5034088 1
--- H2P ---
4976087 0
4976121 1
4976087 0
4976121 1
4976087 0
4976121 1
4976087 0
4976292 1
5034664 1
5034633 0
5034088 1
5034081 0
5032431 1
5031481 1
5031479 0
5031443 1
5031411 1
5031390 0
5031337 1
5031318 0
5031292 1
4976271 1
4976267 0
4976243 0
5023051 1
5023021 1
5022702 1
5022569 1
5021834 1
5021830 0
5008313 1
5008304 0
5008293 0
4999978 1
4999973 0
4999968 0
4999945 0
4998239 1
4995634 1
4995592 0
4995550 0
4995356 1
4995314 0
5015399 1
5015393 0
4998862 1
4998763 0
4998744 0
4995634 1
4995592 0
4995550 0
4995356 1
4995314 0
4995273 1
5038824 1
5038766 1
4994900 1
4994837 1
5313820 1
5313758 1
4994742 1
4976234 1
4976184 1
4976129 0
4976121 0
4976087 0
4976292 1
5034664 1
5034633 0
5034088 1
5034081 0
5032431 1
5031481 1
5031479 0
5031443 1
5031411 1
5031390 0
5031337 1
5031318 0
5031292 1
4976271 1
4976267 0
4976243 0
5023051 1
5023021 1
5022702 1
5022569 1
5021834 1
5021830 0
5008313 1
5008304 0
5008293 0
4999978 1
4999973 0
4999968 0
4999945 0
4998239 1
4995634 1
4995592 0
4995550 0
4995356 1
4995314 0
5015399 1
5015393 0
4998862 1
4998763 0
4998744 0
4995634 1
4995592 0
4995550 0
4995356 1
4995314 0
4995273 1
5038824 1
5038766 1
4994900 1
4994837 1
5313820 1
5313758 1
4994742 1
4976234 1
4976184 1
4976129 0
4976121 0
4976087 0
4976121 1
4976087 0
4976121 1
4976087 0
4976121 1
4976087 0
4976121 1
4976087 0
4976121 1
4976087 0
4976121 1
4976087 0
4976121 1
4976087 0
4976292 1
5034664 1
5034633 0
5034088 1
5034081 0
5032431 1
5031481 1
5031479 0
5031443 1
5031411 1
5031390 0
5031337 1
5031318 0
5031292 1
4976271 1
4976267 0
4976243 0
5023051 1
5023021 1
5022702 1
5022569 1
5021834 1
5021830 0
5008313 1
5008304 0
5008293 0
4999978 1
4999973 0
4999968 0
4999945 0
4998239 1
4995634 1
4995592 0
4995550 0
4995356 1
4995314 0
5015399 1
5015393 0
4998862 1
4998763 0
4998744 0
4995634 1
4995592 0
4995550 0
4995356 1
4995314 0
4995273 1
5038824 1
5038766 1
4994900 1
4994837 1
5313820 1
5313758 1
4994742 1
4976234 1
4976184 1
4976129 0
4976121 0
4976087 0
4976292 1
5034664 1
5034633 0
--- H2P ---
4976121 1
4976087 0
4976121 1
4976087 0
4976121 1
4976087 0
4976121 1
4976087 0
4976292 1
5034664 1
5034633 0
5034088 1
5034081 0
5032431 1
5031481 1
5031479 0
5031443 1
5031411 1
5031390 0
5031337 1
5031318 0
5031292 1
4976271 1
4976267 0
4976243 0
5023051 1
5023021 1
5022702 1
5022569 1
5021834 1
5021830 0
5008313 1
5008304 0
5008293 0
4999978 1
4999973 0
4999968 0
4999945 0
4998239 1
4995634 1
4995592 0
4995550 0
4995356 1
4995314 0
5015399 1
5015393 0
4998862 1
4998763 0
4998744 0
4995634 1
4995592 0
4995550 0
4995356 1
4995314 0
4995273 1
5038824 1
5038766 1
4994900 1
4994837 1
5313820 1
5313758 1
4994742 1
4976234 1
4976184 1
4976129 0
4976121 0
4976087 0
4976292 1
5034664 1
5034633 0
5034088 1
5034081 0
5032431 1
5031481 1
5031479 0
5031443 1
5031411 1
5031390 0
5031337 1
5031318 0
5031292 1
4976271 1
4976267 0
4976243 0
5023051 1
5023021 1
5022702 1
5022569 1
5021834 1
5021830 0
5008313 1
5008304 0
5008293 0
4999978 1
4999973 0
4999968 0
4999945 0
4998239 1
4995634 1
4995592 0
4995550 0
4995356 1
4995314 0
5015399 1
5015393 0
4998862 1
4998763 0
4998744 0
4995634 1
4995592 0
4995550 0
4995356 1
4995314 0
4995273 1
5038824 1
5038766 1
4994900 1
4994837 1
5313820 1
5313758 1
4994742 1
4976234 1
4976184 1
4976129 0
4976121 0
4976087 0
4976121 1
4976087 0
4976121 1
4976087 0
4976121 1
4976087 0
4976121 1
4976087 0
4976121 1
4976087 0
4976121 1
4976087 0
4976121 1
4976087 0
4976292 1
5034664 1
5034633 0
5034088 1
5034081 0
5032431 1
5031481 1
5031479 0
5031443 1
5031411 1
5031390 0
5031337 1
5031318 0
5031292 1
4976271 1
4976267 0
4976243 0
5023051 1
5023021 1
5022702 1
5022569 1
5021834 1
5021830 0
5008313 1
5008304 0
5008293 0
4999978 1
4999973 0
4999968 0
4999945 0
4998239 1
4995634 1
4995592 0
4995550 0
4995356 1
4995314 0
5015399 1
5015393 0
4998862 1
4998763 0
4998744 0
4995634 1
4995592 0
4995550 0
4995356 1
4995314 0
4995273 1
5038824 1
5038766 1
4994900 1
4994837 1
5313820 1
5313758 1
4994742 1
4976234 1
4976184 1
4976129 0
4976121 0
4976087 0
4976292 1
5034664 1
--- H2P ---
4976087 0
4976121 1
4976087 0
4976121 1
4976087 0
4976121 1
4976087 0
4976121 1
4976087 0
4976292 1
5034664 1
5034633 0
5034088 1
5034081 0
5032431 1
5031481 1
5031479 0
5031443 1
5031411 1
5031390 0
5031337 1
5031318 0
5031292 1
4976271 1
4976267 0
4976243 0
5023051 1
5023021 1
5022702 1
5022569 1
5021834 1
5021830 0
5008313 1
5008304 0
5008293 0
4999978 1
4999973 0
4999968 0
4999945 0
4998239 1
4995634 1
4995592 0
4995550 0
4995356 1
4995314 0
5015399 1
5015393 0
4998862 1
4998763 0
4998744 0
4995634 1
4995592 0
4995550 0
4995356 1
4995314 0
4995273 1
5038824 1
5038766 1
4994900 1
4994837 1
5313820 1
5313758 1
4994742 1
4976234 1
4976184 1
4976129 0
4976121 0
4976087 0
4976292 1
5034664 1
5034633 0
5034088 1
5034081 0
5032431 1
5031481 1
5031479 0
5031443 1
5031411 1
5031390 0
5031337 1
5031318 0
5031292 1
4976271 1
4976267 0
4976243 0
5023051 1
5023021 1
5022702 1
5022569 1
5021834 1
5021830 0
5008313 1
5008304 0
5008293 0
4999978 1
4999973 0
4999968 0
4999945 0
4998239 1
4995634 1
4995592 0
4995550 0
4995356 1
4995314 0
5015399 1
5015393 0
4998862 1
4998763 0
4998744 0
4995634 1
4995592 0
4995550 0
4995356 1
4995314 0
4995273 1
5038824 1
5038766 1
4994900 1
4994837 1
5313820 1
5313758 1
4994742 1
4976234 1
4976184 1
4976129 0
4976121 0
4976087 0
4976121 1
4976087 0
4976121 1
4976087 0
4976121 1
4976087 0
4976121 1
4976087 0
4976121 1
4976087 0
4976121 1
4976087 0
4976121 1
4976087 0
4976292 1
5034664 1
5034633 0
5034088 1
5034081 0
5032431 1
5031481 1
5031479 0
5031443 1
5031411 1
5031390 0
5031337 1
5031318 0
5031292 1
4976271 1
4976267 0
4976243 0
5023051 1
5023021 1
5022702 1
5022569 1
5021834 1
5021830 0
5008313 1
5008304 0
5008293 0
4999978 1
4999973 0
4999968 0
4999945 0
4998239 1
4995634 1
4995592 0
4995550 0
4995356 1
4995314 0
5015399 1
5015393 0
4998862 1
4998763 0
4998744 0
4995634 1
4995592 0
4995550 0
4995356 1
4995314 0
4995273 1
5038824 1
5038766 1
4994900 1
4994837 1
5313820 1
5313758 1
4994742 1
4976234 1
4976184 1
4976129 0
4976121 0
4976087 0
4976292 1
--- H2P ---
4976121 1
4976087 0
4976121 1
4976087 0
4976121 1
4976087 0
4976121 1
4976087 0
4976121 1
4976087 0
4976292 1
5034664 1
5034633 0
5034088 1
5034081 0
5032431 1
5031481 1
5031479 0
5031443 1
5031411 1
5031390 0
5031337 1
5031318 0
5031292 1
4976271 1
4976267 0
4976243 0
5023051 1
5023021 1
5022702 1
5022569 1
5021834 1
5021830 0
5008313 1
5008304 0
5008293 0
4999978 1
4999973 0
4999968 0
4999945 0
4998239 1
4995634 1
4995592 0
4995550 0
4995356 1
4995314 0
5015399 1
5015393 0
4998862 1
4998763 0
4998744 0
4995634 1
4995592 0
4995550 0
4995356 1
4995314 0
4995273 1
5038824 1
5038766 1
4994900 1
4994837 1
5313820 1
5313758 1
4994742 1
4976234 1
4976184 1
4976129 0
4976121 0
4976087 0
4976292 1
5034664 1
5034633 0
5034088 1
5034081 0
5032431 1
5031481 1
5031479 0
5031443 1
5031411 1
5031390 0
5031337 1
5031318 0
5031292 1
4976271 1
4976267 0
4976243 0
5023051 1
5023021 1
5022702 1
5022569 1
5021834 1
5021830 0
5008313 1
5008304 0
5008293 0
4999978 1
4999973 0
4999968 0
4999945 0
4998239 1
4995634 1
4995592 0
4995550 0
4995356 1
4995314 0
5015399 1
5015393 0
4998862 1
4998763 0
4998744 0
4995634 1
4995592 0
4995550 0
4995356 1
4995314 0
4995273 1
5038824 1
5038766 1
4994900 1
4994837 1
5313820 1
5313758 1
4994742 1
4976234 1
4976184 1
4976129 0
4976121 0
4976087 0
4976121 1
4976087 0
4976121 1
4976087 0
4976121 1
4976087 0
4976121 1
4976087 0
4976121 1
4976087 0
4976121 1
4976087 0
4976121 1
4976087 0
4976292 1
5034664 1
5034633 0
5034088 1
5034081 0
5032431 1
5031481 1
5031479 0
5031443 1
5031411 1
5031390 0
5031337 1
5031318 0
5031292 1
4976271 1
4976267 0
4976243 0
5023051 1
5023021 1
5022702 1
5022569 1
5021834 1
5021830 0
5008313 1
5008304 0
5008293 0
4999978 1
4999973 0
4999968 0
4999945 0
4998239 1
4995634 1
4995592 0
4995550 0
4995356 1
4995314 0
5015399 1
5015393 0
4998862 1
4998763 0
4998744 0
4995634 1
4995592 0
4995550 0
4995356 1
4995314 0
4995273 1
5038824 1
5038766 1
4994900 1
4994837 1
5313820 1
5313758 1
4994742 1
4976234 1
4976184 1
4976129 0
4976121 0
4976087 0
--- H2P ---
4976087 0
4976121 1
4976087 0
4976121 1
4976087 0
4976121 1
4976087 0
4976121 1
4976087 0
4976121 1
4976087 0
4976292 1
5034664 1
5034633 0
5034088 1
5034081 0
5032431 1
5031481 1
5031479 0
5031443 1
5031411 1
5031390 0
5031337 1
5031318 0
5031292 1
4976271 1
4976267 0
4976243 0
5023051 1
5023021 1
5022702 1
5022569 1
5021834 1
5021830 0
5008313 1
5008304 0
5008293 0
4999978 1
4999973 0
4999968 0
4999945 0
4998239 1
4995634 1
4995592 0
4995550 0
4995356 1
4995314 0
5015399 1
5015393 0
4998862 1
4998763 0
4998744 0
4995634 1
4995592 0
4995550 0
4995356 1
4995314 0
4995273 1
5038824 1
5038766 1
4994900 1
4994837 1
5313820 1
5313758 1
4994742 1
4976234 1
4976184 1
4976129 0
4976121 0
4976087 0
4976292 1
5034664 1
5034633 0
5034088 1
5034081 0
5032431 1
5031481 1
5031479 0
5031443 1
5031411 1
5031390 0
5031337 1
5031318 0
5031292 1
4976271 1
4976267 0
4976243 0
5023051 1
5023021 1
5022702 1
5022569 1
5021834 1
5021830 0
5008313 1
5008304 0
5008293 0
4999978 1
4999973 0
4999968 0
4999945 0
4998239 1
4995634 1
4995592 0
4995550 0
4995356 1
4995314 0
5015399 1
5015393 0
4998862 1
4998763 0
4998744 0
4995634 1
4995592 0
4995550 0
4995356 1
4995314 0
4995273 1
5038824 1
5038766 1
4994900 1
4994837 1
5313820 1
5313758 1
4994742 1
4976234 1
4976184 1
4976129 0
4976121 0
4976087 0
4976121 1
4976087 0
4976121 1
4976087 0
4976121 1
4976087 0
4976121 1
4976087 0
4976121 1
4976087 0
4976121 1
4976087 0
4976121 1
4976087 0
4976292 1
5034664 1
5034633 0
5034088 1
5034081 0
5032431 1
5031481 1
5031479 0
5031443 1
5031411 1
5031390 0
5031337 1
5031318 0
5031292 1
4976271 1
4976267 0
4976243 0
5023051 1
5023021 1
5022702 1
5022569 1
5021834 1
5021830 0
5008313 1
5008304 0
5008293 0
4999978 1
4999973 0
4999968 0
4999945 0
4998239 1
4995634 1
4995592 0
4995550 0
4995356 1
4995314 0
5015399 1
5015393 0
4998862 1
4998763 0
4998744 0
4995634 1
4995592 0
4995550 0
4995356 1
4995314 0
4995273 1
5038824 1
5038766 1
4994900 1
4994837 1
5313820 1
5313758 1
4994742 1
4976234 1
4976184 1
4976129 0
4976121 0
--- H2P ---
4976121 1
4976087 0
4976121 1
4976087 0
4976121 1
4976087 0
4976121 1
4976087 0
4976121 1
4976087 0
4976121 1
4976087 0
4976292 1
5034664 1
5034633 0
5034088 1
5034081 0
5032431 1
5031481 1
5031479 0
5031443 1
5031411 1
5031390 0
5031337 1
5031318 0
5031292 1
4976271 1
4976267 0
4976243 0
5023051 1
5023021 1
5022702 1
5022569 1
5021834 1
5021830 0
5008313 1
5008304 0
5008293 0
4999978 1
4999973 0
4999968 0
4999945 0
4998239 1
4995634 1
4995592 0
4995550 0
4995356 1
4995314 0
5015399 1
5015393 0
4998862 1
4998763 0
4998744 0
4995634 1
4995592 0
4995550 0
4995356 1
4995314 0
4995273 1
5038824 1
5038766 1
4994900 1
4994837 1
5313820 1
5313758 1
4994742 1
4976234 1
4976184 1
4976129 0
4976121 0
4976087 0
4976292 1
5034664 1
5034633 0
5034088 1
5034081 0
5032431 1
5031481 1
5031479 0
5031443 1
5031411 1
5031390 0
5031337 1
5031318 0
5031292 1
4976271 1
4976267 0
4976243 0
5023051 1
5023021 1
5022702 1
5022569 1
5021834 1
5021830 0
5008313 1
5008304 0
5008293 0
4999978 1
4999973 0
4999968 0
4999945 0
4998239 1
4995634 1
4995592 0
4995550 0
4995356 1
4995314 0
5015399 1
5015393 0
4998862 1
4998763 0
4998744 0
4995634 1
4995592 0
4995550 0
4995356 1
4995314 0
4995273 1
5038824 1
5038766 1
4994900 1
4994837 1
5313820 1
5313758 1
4994742 1
4976234 1
4976184 1
4976129 0
4976121 0
4976087 0
4976121 1
4976087 0
4976121 1
4976087 0
4976121 1
4976087 0
4976121 1
4976087 0
4976121 1
4976087 0
4976121 1
4976087 0
4976121 1
4976087 0
4976292 1
5034664 1
5034633 0
5034088 1
5034081 0
5032431 1
5031481 1
5031479 0
5031443 1
5031411 1
5031390 0
5031337 1
5031318 0
5031292 1
4976271 1
4976267 0
4976243 0
5023051 1
5023021 1
5022702 1
5022569 1
5021834 1
5021830 0
5008313 1
5008304 0
5008293 0
4999978 1
4999973 0
4999968 0
4999945 0
4998239 1
4995634 1
4995592 0
4995550 0
4995356 1
4995314 0
5015399 1
5015393 0
4998862 1
4998763 0
4998744 0
4995634 1
4995592 0
4995550 0
4995356 1
4995314 0
4995273 1
5038824 1
5038766 1
4994900 1
4994837 1
5313820 1
5313758 1
4994742 1
4976234 1
4976184 1
4976129 0
--- H2P ---
4976087 0
4976121 1
4976087 0
4976121 1
4976087 0
4976121 1
4976087 0
4976121 1
4976087 0
4976121 1
4976087 0
4976121 1
4976087 0
4976292 1
5034664 1
5034633 0
5034088 1
5034081 0
5032431 1
5031481 1
5031479 0
5031443 1
5031411 1
5031390 0
5031337 1
5031318 0
5031292 1
4976271 1
4976267 0
4976243 0
5023051 1
5023021 1
5022702 1
5022569 1
5021834 1
5021830 0
5008313 1
5008304 0
5008293 0
4999978 1
4999973 0
4999968 0
4999945 0
4998239 1
4995634 1
4995592 0
4995550 0
4995356 1
4995314 0
5015399 1
5015393 0
4998862 1
4998763 0
4998744 0
4995634 1
4995592 0
4995550 0
4995356 1
4995314 0
4995273 1
5038824 1
5038766 1
4994900 1
4994837 1
5313820 1
5313758 1
4994742 1
4976234 1
4976184 1
4976129 0
4976121 0
4976087 0
4976292 1
5034664 1
5034633 0
5034088 1
5034081 0
5032431 1
5031481 1
5031479 0
5031443 1
5031411 1
5031390 0
5031337 1
5031318 0
5031292 1
4976271 1
4976267 0
4976243 0
5023051 1
5023021 1
5022702 1
5022569 1
5021834 1
5021830 0
5008313 1
5008304 0
5008293 0
4999978 1
4999973 0
4999968 0
4999945 0
4998239 1
4995634 1
4995592 0
4995550 0
4995356 1
4995314 0
5015399 1
5015393 0
4998862 1
4998763 0
4998744 0
4995634 1
4995592 0
4995550 0
4995356 1
4995314 0
4995273 1
5038824 1
5038766 1
4994900 1
4994837 1
5313820 1
5313758 1
4994742 1
4976234 1
4976184 1
4976129 0
4976121 0
4976087 0
4976121 1
4976087 0
4976121 1
4976087 0
4976121 1
4976087 0
4976121 1
4976087 0
4976121 1
4976087 0
4976121 1
4976087 0
4976121 1
4976087 0
4976292 1
5034664 1
5034633 0
5034088 1
5034081 0
5032431 1
5031481 1
5031479 0
5031443 1
5031411 1
5031390 0
5031337 1
5031318 0
5031292 1
4976271 1
4976267 0
4976243 0
5023051 1
5023021 1
5022702 1
5022569 1
5021834 1
5021830 0
5008313 1
5008304 0
5008293 0
4999978 1
4999973 0
4999968 0
4999945 0
4998239 1
4995634 1
4995592 0
4995550 0
4995356 1
4995314 0
5015399 1
5015393 0
4998862 1
4998763 0
4998744 0
4995634 1
4995592 0
4995550 0
4995356 1
4995314 0
4995273 1
5038824 1
5038766 1
4994900 1
4994837 1
5313820 1
5313758 1
4994742 1
4976234 1
4976184 1
--- H2P ---
4976121 1
4976087 0
4976121 1
4976087 0
4976121 1
4976087 0
4976121 1
4976087 0
4976121 1
4976087 0
4976121 1
4976087 0
4976121 1
4976087 0
4976292 1
5034664 1
5034633 0
5034088 1
5034081 0
5032431 1
5031481 1
5031479 0
5031443 1
5031411 1
5031390 0
5031337 1
5031318 0
5031292 1
4976271 1
4976267 0
4976243 0
5023051 1
5023021 1
5022702 1
5022569 1
5021834 1
5021830 0
5008313 1
5008304 0
5008293 0
4999978 1
4999973 0
4999968 0
4999945 0
4998239 1
4995634 1
4995592 0
4995550 0
4995356 1
4995314 0
5015399 1
5015393 0
4998862 1
4998763 0
4998744 0
4995634 1
4995592 0
4995550 0
4995356 1
4995314 0
4995273 1
5038824 1
5038766 1
4994900 1
4994837 1
5313820 1
5313758 1
4994742 1
4976234 1
4976184 1
4976129 0
4976121 0
4976087 0
4976292 1
5034664 1
5034633 0
5034088 1
5034081 0
5032431 1
5031481 1
5031479 0
5031443 1
5031411 1
5031390 0
5031337 1
5031318 0
5031292 1
4976271 1
4976267 0
4976243 0
5023051 1
5023021 1
5022702 1
5022569 1
5021834 1
5021830 0
5008313 1
5008304 0
5008293 0
4999978 1
4999973 0
4999968 0
4999945 0
4998239 1
4995634 1
4995592 0
4995550 0
4995356 1
4995314 0
5015399 1
5015393 0
4998862 1
4998763 0
4998744 0
4995634 1
4995592 0
4995550 0
4995356 1
4995314 0
4995273 1
5038824 1
5038766 1
4994900 1
4994837 1
5313820 1
5313758 1
4994742 1
4976234 1
4976184 1
4976129 0
4976121 0
4976087 0
4976121 1
4976087 0
4976121 1
4976087 0
4976121 1
4976087 0
4976121 1
4976087 0
4976121 1
4976087 0
4976121 1
4976087 0
4976121 1
4976087 0
4976292 1
5034664 1
5034633 0
5034088 1
5034081 0
5032431 1
5031481 1
5031479 0
5031443 1
5031411 1
5031390 0
5031337 1
5031318 0
5031292 1
4976271 1
4976267 0
4976243 0
5023051 1
5023021 1
5022702 1
5022569 1
5021834 1
5021830 0
5008313 1
5008304 0
5008293 0
4999978 1
4999973 0
4999968 0
4999945 0
4998239 1
4995634 1
4995592 0
4995550 0
4995356 1
4995314 0
5015399 1
5015393 0
4998862 1
4998763 0
4998744 0
4995634 1
4995592 0
4995550 0
4995356 1
4995314 0
4995273 1
5038824 1
5038766 1
4994900 1
4994837 1
5313820 1
5313758 1
4994742 1
4976234 1
--- H2P ---
4976087 0
4976121 1
4976087 0
4976121 1
4976087 0
4976121 1
4976087 0
4976121 1
4976087 0
4976121 1
4976087 0
4976121 1
4976087 0
4976121 1
4976087 0
4976292 1
5034664 1
5034633 0
5034088 1
5034081 0
5032431 1
5031481 1
5031479 0
5031443 1
5031411 1
5031390 0
5031337 1
5031318 0
5031292 1
4976271 1
4976267 0
4976243 0
5023051 1
5023021 1
5022702 1
5022569 1
5021834 1
5021830 0
5008313 1
5008304 0
5008293 0
4999978 1
4999973 0
4999968 0
4999945 0
4998239 1
4995634 1
4995592 0
4995550 0
4995356 1
4995314 0
5015399 1
5015393 0
4998862 1
4998763 0
4998744 0
4995634 1
4995592 0
4995550 0
4995356 1
4995314 0
4995273 1
5038824 1
5038766 1
4994900 1
4994837 1
5313820 1
5313758 1
4994742 1
4976234 1
4976184 1
4976129 0
4976121 0
4976087 0
4976292 1
5034664 1
5034633 0
5034088 1
5034081 0
5032431 1
5031481 1
5031479 0
5031443 1
5031411 1
5031390 0
5031337 1
5031318 0
5031292 1
4976271 1
4976267 0
4976243 0
5023051 1
5023021 1
5022702 1
5022569 1
5021834 1
5021830 0
5008313 1
5008304 0
5008293 0
4999978 1
4999973 0
4999968 0
4999945 0
4998239 1
4995634 1
4995592 0
4995550 0
4995356 1
4995314 0
5015399 1
5015393 0
4998862 1
4998763 0
4998744 0
4995634 1
4995592 0
4995550 0
4995356 1
4995314 0
4995273 1
5038824 1
5038766 1
4994900 1
4994837 1
5313820 1
5313758 1
4994742 1
4976234 1
4976184 1
4976129 0
4976121 0
4976087 0
4976121 1
4976087 0
4976121 1
4976087 0
4976121 1
4976087 0
4976121 1
4976087 0
4976121 1
4976087 0
4976121 1
4976087 0
4976121 1
4976087 0
4976292 1
5034664 1
5034633 0
5034088 1
5034081 0
5032431 1
5031481 1
5031479 0
5031443 1
5031411 1
5031390 0
5031337 1
5031318 0
5031292 1
4976271 1
4976267 0
4976243 0
5023051 1
5023021 1
5022702 1
5022569 1
5021834 1
5021830 0
5008313 1
5008304 0
5008293 0
4999978 1
4999973 0
4999968 0
4999945 0
4998239 1
4995634 1
4995592 0
4995550 0
4995356 1
4995314 0
5015399 1
5015393 0
4998862 1
4998763 0
4998744 0
4995634 1
4995592 0
4995550 0
4995356 1
4995314 0
4995273 1
5038824 1
5038766 1
4994900 1
4994837 1
5313820 1
5313758 1
4994742 1
--- H2P ---
4976121 1
4976087 0
4976121 1
4976087 0
4976121 1
4976087 0
4976121 1
4976087 0
4976121 1
4976087 0
4976121 1
4976087 0
4976121 1
4976087 0
4976121 1
4976087 0
4976292 1
5034664 1
5034633 0
5034088 1
5034081 0
5032431 1
5031481 1
5031479 0
5031443 1
5031411 1
5031390 0
5031337 1
5031318 0
5031292 1
4976271 1
4976267 0
4976243 0
5023051 1
5023021 1
5022702 1
5022569 1
5021834 1
5021830 0
5008313 1
5008304 0
5008293 0
4999978 1
4999973 0
4999968 0
4999945 0
4998239 1
4995634 1
4995592 0
4995550 0
4995356 1
4995314 0
5015399 1
5015393 0
4998862 1
4998763 0
4998744 0
4995634 1
4995592 0
4995550 0
4995356 1
4995314 0
4995273 1
5038824 1
5038766 1
4994900 1
4994837 1
5313820 1
5313758 1
4994742 1
4976234 1
4976184 1
4976129 0
4976121 0
4976087 0
4976292 1
5034664 1
5034633 0
5034088 1
5034081 0
5032431 1
5031481 1
5031479 0
5031443 1
5031411 1
5031390 0
5031337 1
5031318 0
5031292 1
4976271 1
4976267 0
4976243 0
5023051 1
5023021 1
5022702 1
5022569 1
5021834 1
5021830 0
5008313 1
5008304 0
5008293 0
4999978 1
4999973 0
4999968 0
4999945 0
4998239 1
4995634 1
4995592 0
4995550 0
4995356 1
4995314 0
5015399 1
5015393 0
4998862 1
4998763 0
4998744 0
4995634 1
4995592 0
4995550 0
4995356 1
4995314 0
4995273 1
5038824 1
5038766 1
4994900 1
4994837 1
5313820 1
5313758 1
4994742 1
4976234 1
4976184 1
4976129 0
4976121 0
4976087 0
4976121 1
4976087 0
4976121 1
4976087 0
4976121 1
4976087 0
4976121 1
4976087 0
4976121 1
4976087 0
4976121 1
4976087 0
4976121 1
4976087 0
4976292 1
5034664 1
5034633 0
5034088 1
5034081 0
5032431 1
5031481 1
5031479 0
5031443 1
5031411 1
5031390 0
5031337 1
5031318 0
5031292 1
4976271 1
4976267 0
4976243 0
5023051 1
5023021 1
5022702 1
5022569 1
5021834 1
5021830 0
5008313 1
5008304 0
5008293 0
4999978 1
4999973 0
4999968 0
4999945 0
4998239 1
4995634 1
4995592 0
4995550 0
4995356 1
4995314 0
5015399 1
5015393 0
4998862 1
4998763 0
4998744 0
4995634 1
4995592 0
4995550 0
4995356 1
4995314 0
4995273 1
5038824 1
5038766 1
4994900 1
4994837 1
5313820 1
5313758 1
--- H2P ---
4976087 0
4976121 1
4976087 0
4976121 1
4976087 0
4976121 1
4976087 0
4976121 1
4976087 0
4976121 1
4976087 0
4976121 1
4976087 0
4976121 1
4976087 0
4976121 1
4976087 0
4976292 1
5034664 1
5034633 0
5034088 1
5034081 0
5032431 1
5031481 1
5031479 0
5031443 1
5031411 1
5031390 0
5031337 1
5031318 0
5031292 1
4976271 1
4976267 0
4976243 0
5023051 1
5023021 1
5022702 1
5022569 1
5021834 1
5021830 0
5008313 1
5008304 0
5008293 0
4999978 1
4999973 0
4999968 0
4999945 0
4998239 1
4995634 1
4995592 0
4995550 0
4995356 1
4995314 0
5015399 1
5015393 0
4998862 1
4998763 0
4998744 0
4995634 1
4995592 0
4995550 0
4995356 1
4995314 0
4995273 1
5038824 1
5038766 1
4994900 1
4994837 1
5313820 1
5313758 1
4994742 1
4976234 1
4976184 1
4976129 0
4976121 0
4976087 0
4976292 1
5034664 1
5034633 0
5034088 1
5034081 0
5032431 1
5031481 1
5031479 0
5031443 1
5031411 1
5031390 0
5031337 1
5031318 0
5031292 1
4976271 1
4976267 0
4976243 0
5023051 1
5023021 1
5022702 1
5022569 1
5021834 1
5021830 0
5008313 1
5008304 0
5008293 0
4999978 1
4999973 0
4999968 0
4999945 0
4998239 1
4995634 1
4995592 0
4995550 0
4995356 1
4995314 0
5015399 1
5015393 0
4998862 1
4998763 0
4998744 0
4995634 1
4995592 0
4995550 0
4995356 1
4995314 0
4995273 1
5038824 1
5038766 1
4994900 1
4994837 1
5313820 1
5313758 1
4994742 1
4976234 1
4976184 1
4976129 0
4976121 0
4976087 0
4976121 1
4976087 0
4976121 1
4976087 0
4976121 1
4976087 0
4976121 1
4976087 0
4976121 1
4976087 0
4976121 1
4976087 0
4976121 1
4976087 0
4976292 1
5034664 1
5034633 0
5034088 1
5034081 0
5032431 1
5031481 1
5031479 0
5031443 1
5031411 1
5031390 0
5031337 1
5031318 0
5031292 1
4976271 1
4976267 0
4976243 0
5023051 1
5023021 1
5022702 1
5022569 1
5021834 1
5021830 0
5008313 1
5008304 0
5008293 0
4999978 1
4999973 0
4999968 0
4999945 0
4998239 1
4995634 1
4995592 0
4995550 0
4995356 1
4995314 0
5015399 1
5015393 0
4998862 1
4998763 0
4998744 0
4995634 1
4995592 0
4995550 0
4995356 1
4995314 0
4995273 1
5038824 1
5038766 1
4994900 1
4994837 1
5313820 1
--- H2P ---
4976121 0
4976087 0
4976121 1
4976087 0
4976121 1
4976087 0
4976121 1
4976087 0
4976121 1
4976087 0
4976121 1
4976087 0
4976121 1
4976087 0
4976121 1
4976087 0
4976121 1
4976087 0
4976292 1
5034664 1
5034633 0
5034088 1
5034081 0
5032431 1
5031481 1
5031479 0
5031443 1
5031411 1
5031390 0
5031337 1
5031318 0
5031292 1
4976271 1
4976267 0
4976243 0
5023051 1
5023021 1
5022702 1
5022569 1
5021834 1
5021830 0
5008313 1
5008304 0
5008293 0
4999978 1
4999973 0
4999968 0
4999945 0
4998239 1
4995634 1
4995592 0
4995550 0
4995356 1
4995314 0
5015399 1
5015393 0
4998862 1
4998763 0
4998744 0
4995634 1
4995592 0
4995550 0
4995356 1
4995314 0
4995273 1
5038824 1
5038766 1
4994900 1
4994837 1
5313820 1
5313758 1
4994742 1
4976234 1
4976184 1
4976129 0
4976121 0
4976087 0
4976292 1
5034664 1
5034633 0
5034088 1
5034081 0
5032431 1
5031481 1
5031479 0
5031443 1
5031411 1
5031390 0
5031337 1
5031318 0
5031292 1
4976271 1
4976267 0
4976243 0
5023051 1
5023021 1
5022702 1
5022569 1
5021834 1
5021830 0
5008313 1
5008304 0
5008293 0
4999978 1
4999973 0
4999968 0
4999945 0
4998239 1
4995634 1
4995592 0
4995550 0
4995356 1
4995314 0
5015399 1
5015393 0
4998862 1
4998763 0
4998744 0
4995634 1
4995592 0
4995550 0
4995356 1
4995314 0
4995273 1
5038824 1
5038766 1
4994900 1
4994837 1
5313820 1
5313758 1
4994742 1
4976234 1
4976184 1
4976129 0
4976121 0
4976087 0
4976121 1
4976087 0
4976121 1
4976087 0
4976121 1
4976087 0
4976121 1
4976087 0
4976121 1
4976087 0
4976121 1
4976087 0
4976121 1
4976087 0
4976292 1
5034664 1
5034633 0
5034088 1
5034081 0
5032431 1
5031481 1
5031479 0
5031443 1
5031411 1
5031390 0
5031337 1
5031318 0
5031292 1
4976271 1
4976267 0
4976243 0
5023051 1
5023021 1
5022702 1
5022569 1
5021834 1
5021830 0
5008313 1
5008304 0
5008293 0
4999978 1
4999973 0
4999968 0
4999945 0
4998239 1
4995634 1
4995592 0
4995550 0
4995356 1
4995314 0
5015399 1
5015393 0
4998862 1
4998763 0
4998744 0
4995634 1
4995592 0
4995550 0
4995356 1
4995314 0
4995273 1
5038824 1
5038766 1
4994900 1
4994837 1
--- H2P ---
5015393 0
4998862 1
4998763 0
4998744 0
4995634 1
4995592 0
4995550 0
4995356 1
4995314 0
4995273 1
5038824 1
5038766 1
4994900 1
4994837 1
5313820 1
5313758 1
4994742 1
4976234 1
4976184 1
4976129 0
4976121 0
4976087 0
4976121 1
4976087 0
4976121 1
4976087 0
4976121 1
4976087 0
4976121 1
4976087 0
4976121 1
4976087 0
4976121 1
4976087 0
4976121 1
4976087 0
4976121 1
4976087 0
4976292 1
5034664 1
5034633 0
5034088 1
5034081 0
5032431 1
5031481 1
5031479 0
5031443 1
5031411 1
5031390 0
5031337 1
5031318 0
5031292 1
4976271 1
4976267 0
4976243 0
5023051 1
5023021 1
5022702 1
5022569 1
5021834 1
5021830 0
5008313 1
5008304 0
5008293 0
4999978 1
4999973 0
4999968 0
4999945 0
4998239 1
4995634 1
4995592 0
4995550 0
4995356 1
4995314 0
5015399 1
5015393 0
4998862 1
4998763 0
4998744 0
4995634 1
4995592 0
4995550 0
4995356 1
4995314 0
4995273 1
5038824 1
5038766 1
4994900 1
4994837 1
5313820 1
5313758 1
4994742 1
4976234 1
4976184 1
4976129 0
4976121 0
4976087 0
4976292 1
5034664 1
5034633 0
5034088 1
5034081 0
5032431 1
5031481 1
5031479 0
5031443 1
5031411 1
5031390 0
5031337 1
5031318 0
5031292 1
4976271 1
4976267 0
4976243 0
5023051 1
5023021 1
5022702 1
5022569 1
5021834 1
5021830 0
5008313 1
5008304 0
5008293 0
4999978 1
4999973 0
4999968 0
4999945 0
4998239 1
4995634 1
4995592 0
4995550 0
4995356 1
4995314 0
5015399 1
5015393 0
4998862 1
4998763 0
4998744 0
4995634 1
4995592 0
4995550 0
4995356 1
4995314 0
4995273 1
5038824 1
5038766 1
4994900 1
4994837 1
5313820 1
5313758 1
4994742 1
4976234 1
4976184 1
4976129 0
4976121 0
4976087 0
4976121 1
4976087 0
4976121 1
4976087 0
4976121 1
4976087 0
4976121 1
4976087 0
4976121 1
4976087 0
4976121 1
4976087 0
4976121 1
4976087 0
4976292 1
5034664 1
5034633 0
5034088 1
5034081 0
5032431 1
5031481 1
5031479 0
5031443 1
5031411 1
5031390 0
5031337 1
5031318 0
5031292 1
4976271 1
4976267 0
4976243 0
5023051 1
5023021 1
5022702 1
5022569 1
5021834 1
5021830 0
5008313 1
5008304 0
5008293 0
4999978 1
4999973 0
4999968 0
4999945 0
4998239 1
--- H2P ---
5008304 0
5008293 0
4999978 1
4999973 0
4999968 0
4999945 0
4998239 1
4995634 1
4995592 0
4995550 0
4995356 1
4995314 0
5015399 1
5015393 0
4998862 1
4998763 0
4998744 0
4995634 1
4995592 0
4995550 0
4995356 1
4995314 0
4995273 1
5038824 1
5038766 1
4994900 1
4994837 1
5313820 1
5313758 1
4994742 1
4976234 1
4976184 1
4976129 0
4976121 0
4976087 0
4976121 1
4976087 0
4976121 1
4976087 0
4976121 1
4976087 0
4976121 1
4976087 0
4976121 1
4976087 0
4976121 1
4976087 0
4976121 1
4976087 0
4976121 1
4976087 0
4976292 1
5034664 1
5034633 0
5034088 1
5034081 0
5032431 1
5031481 1
5031479 0
5031443 1
5031411 1
5031390 0
5031337 1
5031318 0
5031292 1
4976271 1
4976267 0
4976243 0
5023051 1
5023021 1
5022702 1
5022569 1
5021834 1
5021830 0
5008313 1
5008304 0
5008293 0
4999978 1
4999973 0
4999968 0
4999945 0
4998239 1
4995634 1
4995592 0
4995550 0
4995356 1
4995314 0
5015399 1
5015393 0
4998862 1
4998763 0
4998744 0
4995634 1
4995592 0
4995550 0
4995356 1
4995314 0
4995273 1
5038824 1
5038766 1
4994900 1
4994837 1
5313820 1
5313758 1
4994742 1
4976234 1
4976184 1
4976129 0
4976121 0
4976087 0
4976292 1
5034664 1
5034633 0
5034088 1
5034081 0
5032431 1
5031481 1
5031479 0
5031443 1
5031411 1
5031390 0
5031337 1
5031318 0
5031292 1
4976271 1
4976267 0
4976243 0
5023051 1
5023021 1
5022702 1
5022569 1
5021834 1
5021830 0
5008313 1
5008304 0
5008293 0
4999978 1
4999973 0
4999968 0
4999945 0
4998239 1
4995634 1
4995592 0
4995550 0
4995356 1
4995314 0
5015399 1
5015393 0
4998862 1
4998763 0
4998744 0
4995634 1
4995592 0
4995550 0
4995356 1
4995314 0
4995273 1
5038824 1
5038766 1
4994900 1
4994837 1
5313820 1
5313758 1
4994742 1
4976234 1
4976184 1
4976129 0
4976121 0
4976087 0
4976121 1
4976087 0
4976121 1
4976087 0
4976121 1
4976087 0
4976121 1
4976087 0
4976121 1
4976087 0
4976121 1
4976087 0
4976121 1
4976087 0
4976292 1
5034664 1
5034633 0
5034088 1
5034081 0
5032431 1
5031481 1
5031479 0
5031443 1
[...]
5031411 1
5031390 0
5031337 1
5031318 0
5031292 1
4976271 1
4976267 0
4976243 0
5023051 1
5023021 1
5022702 1
5022569 1
5021834 1
5021830 0
5008313 1
5008304 0
5008293 0
4999978 1
4999973 0
4999968 0
4999945 0
4998239 1
4995634 1
4995592 0
4995550 0
4995356 1
4995314 0
5015399 1
5015393 0
4998862 1
4998763 0
4998744 0
4995634 1
4995592 0
4995550 0
4995356 1
4995314 0
4995273 1
5038824 1
5038766 1
4994900 1
4994837 1
5313820 1
5313758 1
4994742 1
4976234 1
4976184 1
4976129 0
4976121 0
4976087 0
4976121 1
4976087 0
4976121 1
4976087 0
4976121 1
4976087 0
4976121 1
4976087 0
4976121 1
4976087 0
4976121 1
4976087 0
4976121 1
4976087 0
4976292 1
5034664 1
5034633 0
5034088 1
5034081 0
5032431 1
5031481 1
5031479 0
5031443 1
5031411 1
5031390 0
5031337 1
5031318 0
5031292 1
4976271 1
4976267 0
4976243 0
5023051 1
5023021 1
5022702 1
5022569 1
5021834 1
5021830 0
5008313 1
5008304 0
5008293 0
4999978 1
4999973 0
--- H2P ---
5008313 1
5008304 0
5008293 0
4999978 1
4999973 0
4999968 0
4999945 0
4998239 1
4995634 1
4995592 0
4995550 0
4995356 1
4995314 0
5015399 1
5015393 0
4998862 1
4998763 0
4998744 0
4995634 1
4995592 0
4995550 0
4995356 1
4995314 0
4995273 1
5038824 1
5038766 1
4994900 1
4994837 1
5313820 1
5313758 1
4994742 1
4976234 1
4976184 1
4976129 0
4976121 0
4976087 0
4976121 1
4976087 0
4976121 1
4976087 0
4976121 1
4976087 0
4976292 1
5034664 1
5034633 0
5034088 1
5034081 0
5032431 1
5031481 1
5031479 0
5031443 1
5031411 1
5031390 0
5031337 1
5031318 0
5031292 1
4976271 1
4976267 0
4976243 0
5023051 1
5023021 1
5022702 1
5022569 1
5021834 1
5021830 0
5008313 1
5008304 0
5008293 0
4999978 1
4999973 0
4999968 0
4999945 0
4998239 1
4995634 1
4995592 0
4995550 0
4995356 1
4995314 0
5015399 1
5015393 0
4998862 1
4998763 0
4998744 0
4995634 1
4995592 0
4995550 0
4995356 1
4995314 0
4995273 1
5038824 1
5038766 1
4994900 1
4994837 1
5313820 1
5313758 1
4994742 1
4976234 1
4976184 1
4976129 0
4976121 0
4976087 0
4976292 1
5034664 1
5034633 0
5034088 1
5034081 0
5032431 1
5031481 1
5031479 0
5031443 1
5031411 1
5031390 0
5031337 1
5031318 0
5031292 1
4976271 1
4976267 0
4976243 0
5023051 1
5023021 1
5022702 1
5022569 1
5021834 1
5021830 0
5008313 1
5008304 0
5008293 0
4999978 1
4999973 0
4999968 0
4999945 0
4998239 1
4995634 1
4995592 0
4995550 0
4995356 1
4995314 0
5015399 1
5015393 0
4998862 1
4998763 0
4998744 0
4995634 1
4995592 0
4995550 0
4995356 1
4995314 0
4995273 1
5038824 1
5038766 1
4994900 1
4994837 1
5313820 1
5313758 1
4994742 1
4976234 1
4976184 1
4976129 0
4976121 0
4976087 0
4976121 1
4976087 0
4976121 1
4976087 0
4976121 1
4976087 0
4976121 1
4976087 0
4976121 1
4976087 0
4976121 1
4976087 0
4976121 1
4976087 0
4976292 1
5034664 1
5034633 0
5034088 1
5034081 0
5032431 1
5031481 1
5031479 0
5031443 1
5031411 1
5031390 0
5031337 1
5031318 0
5031292 1
4976271 1
4976267 0
4976243 0
5023051 1
5023021 1
5022702 1
5022569 1
5021834 1
5021830 0
5008313 1
5008304 0
5008293 0
4999978 1
--- H2P ---
4976087 0
4976292 1
5034664 1
5034633 0
5034088 1
5034081 0
5032431 1
5031481 1
5031479 0
5031443 1
5031411 1
5031390 0
5031337 1
5031318 0
5031292 1
4976271 1
4976267 0
4976243 0
5023051 1
5023021 1
5022702 1
5022569 1
5021834 1
5021830 0
5008313 1
5008304 0
5008293 0
4999978 1
4999973 0
4999968 0
4999945 0
4998239 1
4995634 1
4995592 0
4995550 0
4995356 1
4995314 0
5015399 1
5015393 0
4998862 1
4998763 0
4998744 0
4995634 1
4995592 0
4995550 0
4995356 1
4995314 0
4995273 1
5038824 1
5038766 1
4994900 1
4994837 1
5313820 1
5313758 1
4994742 1
4976234 1
4976184 1
4976129 0
4976121 0
4976087 0
4976121 1
4976087 0
4976121 1
4976087 0
4976121 1
4976087 0
4976292 1
5034664 1
5034633 0
5034088 1
5034081 0
5032431 1
5031481 1
5031479 0
5031443 1
5031411 1
5031390 0
5031337 1
5031318 0
5031292 1
4976271 1
4976267 0
4976243 0
5023051 1
5023021 1
5022702 1
5022569 1
5021834 1
5021830 0
5008313 1
5008304 0
5008293 0
4999978 1
4999973 0
4999968 0
4999945 0
4998239 1
4995634 1
4995592 0
4995550 0
4995356 1
4995314 0
5015399 1
5015393 0
4998862 1
4998763 0
4998744 0
4995634 1
4995592 0
4995550 0
4995356 1
4995314 0
4995273 1
5038824 1
5038766 1
4994900 1
4994837 1
5313820 1
5313758 1
4994742 1
4976234 1
4976184 1
4976129 0
4976121 0
4976087 0
4976292 1
5034664 1
5034633 0
5034088 1
5034081 0
5032431 1
5031481 1
5031479 0
5031443 1
5031411 1
5031390 0
5031337 1
5031318 0
5031292 1
4976271 1
4976267 0
4976243 0
5023051 1
5023021 1
5022702 1
5022569 1
5021834 1
5021830 0
5008313 1
5008304 0
5008293 0
4999978 1
4999973 0
4999968 0
4999945 0
4998239 1
4995634 1
4995592 0
4995550 0
4995356 1
4995314 0
5015399 1
5015393 0
4998862 1
4998763 0
4998744 0
4995634 1
4995592 0
4995550 0
4995356 1
4995314 0
4995273 1
5038824 1
5038766 1
4994900 1
4994837 1
5313820 1
5313758 1
4994742 1
4976234 1
4976184 1
4976129 0
4976121 0
4976087 0
4976121 1
4976087 0
4976121 1
4976087 0
4976121 1
4976087 0
4976121 1
4976087 0
4976121 1
4976087 0
4976121 1
4976087 0
4976121 1
4976087 0
4976292 1
5034664 1
5034633 0
--- H2P ---
4976121 0
4976087 0
4976292 1
5034664 1
5034633 0
5034088 1
5034081 0
5032431 1
5031481 1
5031479 0
5031443 1
5031411 1
5031390 0
5031337 1
5031318 0
5031292 1
4976271 1
4976267 0
4976243 0
5023051 1
5023021 1
5022702 1
5022569 1
5021834 1
5021830 0
5008313 1
5008304 0
5008293 0
4999978 1
4999973 0
4999968 0
4999945 0
4998239 1
4995634 1
4995592 0
4995550 0
4995356 1
4995314 0
5015399 1
5015393 0
4998862 1
4998763 0
4998744 0
4995634 1
4995592 0
4995550 0
4995356 1
4995314 0
4995273 1
5038824 1
5038766 1
4994900 1
4994837 1
5313820 1
5313758 1
4994742 1
4976234 1
4976184 1
4976129 0
4976121 0
4976087 0
4976121 1
4976087 0
4976121 1
4976087 0
4976121 1
4976087 0
4976292 1
5034664 1
5034633 0
5034088 1
5034081 0
5032431 1
5031481 1
5031479 0
5031443 1
5031411 1
5031390 0
5031337 1
5031318 0
5031292 1
4976271 1
4976267 0
4976243 0
5023051 1
5023021 1
5022702 1
5022569 1
5021834 1
5021830 0
5008313 1
5008304 0
5008293 0
4999978 1
4999973 0
4999968 0
4999945 0
4998239 1
4995634 1
4995592 0
4995550 0
4995356 1
4995314 0
5015399 1
5015393 0
4998862 1
4998763 0
4998744 0
4995634 1
4995592 0
4995550 0
4995356 1
4995314 0
4995273 1
5038824 1
5038766 1
4994900 1
4994837 1
5313820 1
5313758 1
4994742 1
4976234 1
4976184 1
4976129 0
4976121 0
4976087 0
4976292 1
5034664 1
5034633 0
5034088 1
5034081 0
5032431 1
5031481 1
5031479 0
5031443 1
5031411 1
5031390 0
5031337 1
5031318 0
5031292 1
4976271 1
4976267 0
4976243 0
5023051 1
5023021 1
5022702 1
5022569 1
5021834 1
5021830 0
5008313 1
5008304 0
5008293 0
4999978 1
4999973 0
4999968 0
4999945 0
4998239 1
4995634 1
4995592 0
4995550 0
4995356 1
4995314 0
5015399 1
5015393 0
4998862 1
4998763 0
4998744 0
4995634 1
4995592 0
4995550 0
4995356 1
4995314 0
4995273 1
5038824 1
5038766 1
4994900 1
4994837 1
5313820 1
5313758 1
4994742 1
4976234 1
4976184 1
4976129 0
4976121 0
4976087 0
4976121 1
4976087 0
4976121 1
4976087 0
4976121 1
4976087 0
4976121 1
4976087 0
4976121 1
4976087 0
4976121 1
4976087 0
4976121 1
4976087 0
4976292 1
5034664 1
--- H2P ---
5015393 0
4998862 1
4998763 0
4998744 0
4995634 1
4995592 0
4995550 0
4995356 1
4995314 0
4995273 1
5038824 1
5038766 1
4994900 1
4994837 1
5313820 1
5313758 1
4994742 1
4976234 1
4976184 1
4976129 0
4976121 0
4976087 0
4976121 1
4976087 0
4976121 1
4976087 0
4976121 1
4976087 0
4976121 1
4976087 0
4976121 1
4976087 0
4976121 1
4976087 0
4976121 1
4976087 0
4976121 1
4976087 0
4976292 1
5034664 1
5034633 0
5034088 1
5034081 0
5032431 1
5031481 1
5031479 0
5031443 1
5031411 1
5031390 0
5031337 1
5031318 0
5031292 1
4976271 1
4976267 0
4976243 0
5023051 1
5023021 1
5022702 1
5022569 1
5021834 1
5021830 0
5008313 1
5008304 0
5008293 0
4999978 1
4999973 0
4999968 0
4999945 0
4998239 1
4995634 1
4995592 0
4995550 0
4995356 1
4995314 0
5015399 1
5015393 0
4998862 1
4998763 0
4998744 0
4995634 1
4995592 0
4995550 0
4995356 1
4995314 0
4995273 1
5038824 1
5038766 1
4994900 1
4994837 1
5313820 1
5313758 1
4994742 1
4976234 1
4976184 1
4976129 0
4976121 0
4976087 0
4976292 1
5034664 1
5034633 0
5034088 1
5034081 0
5032431 1
5031481 1
5031479 0
5031443 1
5031411 1
5031390 0
5031337 1
5031318 0
5031292 1
4976271 1
4976267 0
4976243 0
5023051 1
5023021 1
5022702 1
5022569 1
5021834 1
5021830 0
5008313 1
5008304 0
5008293 0
4999978 1
4999973 0
4999968 0
4999945 0
4998239 1
4995634 1
4995592 0
4995550 0
4995356 1
4995314 0
5015399 1
5015393 0
4998862 1
4998763 0
4998744 0
4995634 1
4995592 0
4995550 0
4995356 1
4995314 0
4995273 1
5038824 1
5038766 1
4994900 1
4994837 1
5313820 1
5313758 1
4994742 1
4976234 1
4976184 1
4976129 0
4976121 0
4976087 0
4976121 1
4976087 0
4976121 1
4976087 0
4976121 1
4976087 0
4976292 1
5034664 1
5034633 0
5034088 1
5034081 0
5032431 1
5031481 1
5031479 0
5031443 1
5031411 1
5031390 0
5031337 1
5031318 0
5031292 1
4976271 1
4976267 0
4976243 0
5023051 1
5023021 1
5022702 1
5022569 1
5021834 1
5021830 0
5008313 1
5008304 0
5008293 0
4999978 1
4999973 0
4999968 0
4999945 0
4998239 1
4995634 1
4995592 0
4995550 0
4995356 1
4995314 0
5015399 1
5015393 0
4998862 1
--- H2P ---
5008304 0
5008293 0
4999978 1
4999973 0
4999968 0
4999945 0
4998239 1
4995634 1
4995592 0
4995550 0
4995356 1
4995314 0
5015399 1
5015393 0
4998862 1
4998763 0
4998744 0
4995634 1
4995592 0
4995550 0
4995356 1
4995314 0
4995273 1
5038824 1
5038766 1
4994900 1
4994837 1
5313820 1
5313758 1
4994742 1
4976234 1
4976184 1
4976129 0
4976121 0
4976087 0
4976121 1
4976087 0
4976121 1
4976087 0
4976121 1
4976087 0
4976121 1
4976087 0
4976121 1
4976087 0
4976121 1
4976087 0
4976121 1
4976087 0
4976121 1
4976087 0
4976292 1
5034664 1
5034633 0
5034088 1
5034081 0
5032431 1
5031481 1
5031479 0
5031443 1
5031411 1
5031390 0
5031337 1
5031318 0
5031292 1
4976271 1
4976267 0
4976243 0
5023051 1
5023021 1
5022702 1
5022569 1
5021834 1
5021830 0
5008313 1
5008304 0
5008293 0
4999978 1
4999973 0
4999968 0
4999945 0
4998239 1
4995634 1
4995592 0
4995550 0
4995356 1
4995314 0
5015399 1
5015393 0
4998862 1
4998763 0
4998744 0
4995634 1
4995592 0
4995550 0
4995356 1
4995314 0
4995273 1
5038824 1
5038766 1
4994900 1
4994837 1
5313820 1
5313758 1
4994742 1
4976234 1
4976184 1
4976129 0
4976121 0
4976087 0
4976292 1
5034664 1
5034633 0
5034088 1
5034081 0
5032431 1
5031481 1
5031479 0
5031443 1
5031411 1
5031390 0
5031337 1
5031318 0
5031292 1
4976271 1
4976267 0
4976243 0
5023051 1
5023021 1
5022702 1
5022569 1
5021834 1
5021830 0
5008313 1
5008304 0
5008293 0
4999978 1
4999973 0
4999968 0
4999945 0
4998239 1
4995634 1
4995592 0
4995550 0
4995356 1
4995314 0
5015399 1
5015393 0
4998862 1
4998763 0
4998744 0
4995634 1
4995592 0
4995550 0
4995356 1
4995314 0
4995273 1
5038824 1
5038766 1
4994900 1
4994837 1
5313820 1
5313758 1
4994742 1
4976234 1
4976184 1
4976129 0
4976121 0
4976087 0
4976121 1
4976087 0
4976121 1
4976087 0
4976121 1
4976087 0
4976292 1
5034664 1
5034633 0
5034088 1
5034081 0
5032431 1
5031481 1
5031479 0
5031443 1
5031411 1
5031390 0
5031337 1
5031318 0
5031292 1
4976271 1
4976267 0
4976243 0
5023051 1
5023021 1
5022702 1
5022569 1
5021834 1
5021830 0
5008313 1
5008304 0
5008293 0
--- H2P ---
5008313 1
5008304 0
5008293 0
4999978 1
4999973 0
4999968 0
4999945 0
4998239 1
4995634 1
4995592 0
4995550 0
4995356 1
4995314 0
5015399 1
5015393 0
4998862 1
4998763 0
4998744 0
4995634 1
4995592 0
4995550 0
4995356 1
4995314 0
4995273 1
5038824 1
5038766 1
4994900 1
4994837 1
5313820 1
5313758 1
4994742 1
4976234 1
4976184 1
4976129 0
4976121 0
4976087 0
4976121 1
4976087 0
4976121 1
4976087 0
4976121 1
4976087 0
4976121 1
4976087 0
4976121 1
4976087 0
4976121 1
4976087 0
4976121 1
4976087 0
4976121 1
4976087 0
4976292 1
5034664 1
5034633 0
5034088 1
5034081 0
5032431 1
5031481 1
5031479 0
5031443 1
5031411 1
5031390 0
5031337 1
5031318 0
5031292 1
4976271 1
4976267 0
4976243 0
5023051 1
5023021 1
5022702 1
5022569 1
5021834 1
5021830 0
5008313 1
5008304 0
5008293 0
4999978 1
4999973 0
4999968 0
4999945 0
4998239 1
4995634 1
4995592 0
4995550 0
4995356 1
4995314 0
5015399 1
5015393 0
4998862 1
4998763 0
4998744 0
4995634 1
4995592 0
4995550 0
4995356 1
4995314 0
4995273 1
5038824 1
5038766 1
4994900 1
4994837 1
5313820 1
5313758 1
4994742 1
4976234 1
4976184 1
4976129 0
4976121 0
4976087 0
4976292 1
5034664 1
5034633 0
5034088 1
5034081 0
5032431 1
5031481 1
5031479 0
5031443 1
5031411 1
5031390 0
5031337 1
5031318 0
5031292 1
4976271 1
4976267 0
4976243 0
5023051 1
5023021 1
5022702 1
5022569 1
5021834 1
5021830 0
5008313 1
5008304 0
5008293 0
4999978 1
4999973 0
4999968 0
4999945 0
4998239 1
4995634 1
4995592 0
4995550 0
4995356 1
4995314 0
5015399 1
5015393 0
4998862 1
4998763 0
4998744 0
4995634 1
4995592 0
4995550 0
4995356 1
4995314 0
4995273 1
5038824 1
5038766 1
4994900 1
4994837 1
5313820 1
5313758 1
4994742 1
4976234 1
4976184 1
4976129 0
4976121 0
4976087 0
4976121 1
4976087 0
4976121 1
4976087 0
4976121 1
4976087 0
4976292 1
5034664 1
5034633 0
5034088 1
5034081 0
5032431 1
5031481 1
5031479 0
5031443 1
5031411 1
5031390 0
5031337 1
5031318 0
5031292 1
4976271 1
4976267 0
4976243 0
5023051 1
5023021 1
5022702 1
5022569 1
5021834 1
5021830 0
5008313 1
5008304 0
--- H2P ---
4976087 0
4976292 1
5034664 1
5034633 0
5034088 1
5034081 0
5032431 1
5031481 1
5031479 0
5031443 1
5031411 1
5031390 0
5031337 1
5031318 0
5031292 1
4976271 1
4976267 0
4976243 0
5023051 1
5023021 1
5022702 1
5022569 1
5021834 1
5021830 0
5008313 1
5008304 0
5008293 0
4999978 1
4999973 0
4999968 0
4999945 0
4998239 1
4995634 1
4995592 0
4995550 0
4995356 1
4995314 0
5015399 1
5015393 0
4998862 1
4998763 0
4998744 0
4995634 1
4995592 0
4995550 0
4995356 1
4995314 0
4995273 1
5038824 1
5038766 1
4994900 1
4994837 1
5313820 1
5313758 1
4994742 1
4976234 1
4976184 1
4976129 0
4976121 0
4976087 0
4976121 1
4976087 0
4976121 1
4976087 0
4976121 1
4976087 0
4976121 1
4976087 0
4976121 1
4976087 0
4976121 1
4976087 0
4976121 1
4976087 0
4976121 1
4976087 0
4976292 1
5034664 1
5034633 0
5034088 1
5034081 0
5032431 1
5031481 1
5031479 0
5031443 1
5031411 1
5031390 0
5031337 1
5031318 0
5031292 1
4976271 1
4976267 0
4976243 0
5023051 1
5023021 1
5022702 1
5022569 1
5021834 1
5021830 0
5008313 1
5008304 0
5008293 0
4999978 1
4999973 0
4999968 0
4999945 0
4998239 1
4995634 1
4995592 0
4995550 0
4995356 1
4995314 0
5015399 1
5015393 0
4998862 1
4998763 0
4998744 0
4995634 1
4995592 0
4995550 0
4995356 1
4995314 0
4995273 1
5038824 1
5038766 1
4994900 1
4994837 1
5313820 1
5313758 1
4994742 1
4976234 1
4976184 1
4976129 0
4976121 0
4976087 0
4976292 1
5034664 1
5034633 0
5034088 1
5034081 0
5032431 1
5031481 1
5031479 0
5031443 1
5031411 1
5031390 0
5031337 1
5031318 0
5031292 1
4976271 1
4976267 0
4976243 0
5023051 1
5023021 1
5022702 1
5022569 1
5021834 1
5021830 0
5008313 1
5008304 0
5008293 0
4999978 1
4999973 0
4999968 0
4999945 0
4998239 1
4995634 1
4995592 0
4995550 0
4995356 1
4995314 0
5015399 1
5015393 0
4998862 1
4998763 0
4998744 0
4995634 1
4995592 0
4995550 0
4995356 1
4995314 0
4995273 1
5038824 1
5038766 1
4994900 1
4994837 1
5313820 1
5313758 1
4994742 1
4976234 1
4976184 1
4976129 0
4976121 0
4976087 0
4976121 1
4976087 0
4976121 1
4976087 0
4976121 1
4976087 0
4976292 1
--- H2P ---
4976087 0
4976121 1
4976087 0
4976121 1
4976087 0
4976121 1
4976087 0
4976292 1
5034664 1
5034633 0
5034088 1
5034081 0
5032431 1
5031481 1
5031479 0
5031443 1
5031411 1
5031390 0
5031337 1
5031318 0
5031292 1
4976271 1
4976267 0
4976243 0
5023051 1
5023021 1
5022702 1
5022569 1
5021834 1
5021830 0
5008313 1
5008304 0
5008293 0
4999978 1
4999973 0
4999968 0
4999945 0
4998239 1
4995634 1
4995592 0
4995550 0
4995356 1
4995314 0
5015399 1
5015393 0
4998862 1
4998763 0
4998744 0
4995634 1
4995592 0
4995550 0
4995356 1
4995314 0
4995273 1
5038824 1
5038766 1
4994900 1
4994837 1
5313820 1
5313758 1
4994742 1
4976234 1
4976184 1
4976129 0
4976121 0
4976087 0
4976292 1
5034664 1
5034633 0
5034088 1
5034081 0
5032431 1
5031481 1
5031479 0
5031443 1
5031411 1
5031390 0
5031337 1
5031318 0
5031292 1
4976271 1
4976267 0
4976243 0
5023051 1
5023021 1
5022702 1
5022569 1
5021834 1
5021830 0
5008313 1
5008304 0
5008293 0
4999978 1
4999973 0
4999968 0
4999945 0
4998239 1
4995634 1
4995592 0
4995550 0
4995356 1
4995314 0
5015399 1
5015393 0
4998862 1
4998763 0
4998744 0
4995634 1
4995592 0
4995550 0
4995356 1
4995314 0
4995273 1
5038824 1
5038766 1
4994900 1
4994837 1
5313820 1
5313758 1
4994742 1
4976234 1
4976184 1
4976129 0
4976121 0
4976087 0
4976121 1
4976087 0
4976121 1
4976087 0
4976121 1
4976087 0
4976121 1
4976087 0
4976121 1
4976087 0
4976121 1
4976087 0
4976121 1
4976087 0
4976121 1
4976087 0
4976292 1
5034664 1
5034633 0
5034088 1
5034081 0
5032431 1
5031481 1
5031479 0
5031443 1
5031411 1
5031390 0
5031337 1
5031318 0
5031292 1
4976271 1
4976267 0
4976243 0
5023051 1
5023021 1
5022702 1
5022569 1
5021834 1
5021830 0
5008313 1
5008304 0
5008293 0
4999978 1
4999973 0
4999968 0
4999945 0
4998239 1
4995634 1
4995592 0
4995550 0
4995356 1
4995314 0
5015399 1
5015393 0
4998862 1
4998763 0
4998744 0
4995634 1
4995592 0
4995550 0
4995356 1
4995314 0
4995273 1
5038824 1
5038766 1
4994900 1
4994837 1
5313820 1
5313758 1
4994742 1
4976234 1
4976184 1
4976129 0
4976121 0
4976087 0
4976292 1
Finished CPU 0 instructions: 50000 cycles: 76171 cumulative IPC: 0.656418 (Simulation time: 0 hr 0 min 1 sec) 

ChampSim completed all CPUs

Region of Interest Statistics

CPU 0 cumulative IPC: 0.656418 instructions: 50000 cycles: 76171
L1D TOTAL     ACCESS:      18166  HIT:      18060  MISS:        106
L1D LOAD      ACCESS:       7781  HIT:       7691  MISS:         90
L1D RFO       ACCESS:      10385  HIT:      10369  MISS:         16
L1D PREFETCH  ACCESS:          0  HIT:          0  MISS:          0
L1D WRITEBACK ACCESS:          0  HIT:          0  MISS:          0
L1D PREFETCH  REQUESTED:          0  ISSUED:          0  USEFUL:          0  USELESS:          0
L1D AVERAGE MISS LATENCY: 188.236 cycles
L1I TOTAL     ACCESS:       5606  HIT:       5472  MISS:        134
L1I LOAD      ACCESS:       5606  HIT:       5472  MISS:        134
L1I RFO       ACCESS:          0  HIT:          0  MISS:          0
L1I PREFETCH  ACCESS:          0  HIT:          0  MISS:          0
L1I WRITEBACK ACCESS:          0  HIT:          0  MISS:          0
L1I PREFETCH  REQUESTED:          0  ISSUED:          0  USEFUL:          0  USELESS:          0
L1I AVERAGE MISS LATENCY: 168.896 cycles
L2C TOTAL     ACCESS:        240  HIT:          0  MISS:        240
L2C LOAD      ACCESS:        224  HIT:          0  MISS:        224
L2C RFO       ACCESS:         16  HIT:          0  MISS:         16
L2C PREFETCH  ACCESS:          0  HIT:          0  MISS:          0
L2C WRITEBACK ACCESS:          0  HIT:          0  MISS:          0
L2C PREFETCH  REQUESTED:          0  ISSUED:          0  USEFUL:          0  USELESS:          0
L2C AVERAGE MISS LATENCY: 158.817 cycles
LLC TOTAL     ACCESS:        240  HIT:          0  MISS:        240
LLC LOAD      ACCESS:        224  HIT:          0  MISS:        224
LLC RFO       ACCESS:         16  HIT:          0  MISS:         16
LLC PREFETCH  ACCESS:          0  HIT:          0  MISS:          0
LLC WRITEBACK ACCESS:          0  HIT:          0  MISS:          0
LLC PREFETCH  REQUESTED:          0  ISSUED:          0  USEFUL:          0  USELESS:          0
LLC AVERAGE MISS LATENCY: 126.625 cycles
Major fault: 0 Minor fault: 57

DRAM Statistics
 CHANNEL 0
 RQ ROW_BUFFER_HIT:        114  ROW_BUFFER_MISS:        126
 DBUS_CONGESTED:         17
 WQ ROW_BUFFER_HIT:          0  ROW_BUFFER_MISS:          0  FULL:          0

 AVG_CONGESTED_CYCLE: 6

CPU 0 Branch Prediction Accuracy: 96.2776% MPKI: 5.15969 Average ROB Occupancy at Mispredict: 56.438

Branch types
NOT_BRANCH: 43423 86.846%
BRANCH_JMP_DIRECT_UNCOND: 1078 2.156%
BRANCH_JMP_INDIRECT_UNCOND: 319 0.638%
BRANCH_JMP_DIRECT_COND: 4661 9.322%
BRANCH_JMP_INDIRECT_COND: 0 0%
BRANCH_CALL_DIRECT_UNCOND: 427 0.854%
BRANCH_CALL_INDIRECT_UNCOND: 9 0.018%
BRANCH_CALL_DIRECT_COND: 0 0%
BRANCH_CALL_INDIRECT_COND: 0 0%
BRANCH_RETURN_UNCOND: 438 0.876%
BRANCH_RETURN_COND: 0 0%
BRANCH_OTHER: 0 0%

